pcf
* control data
restart regularisation
    2205      23       6    2205      11
3  5    single  point
 10.0  -3.0  0.3  0.03  10  lamforgive uptestmin=20
 30.0  30.0  0.001
0.1
0  0.005  4  4  0.005  4
0  0  0 parsaveitn reisaveitn
* singular value decomposition
1
  5000  5e-7
0
* parameter groups
kx1    relative   0.015   0.0  switch  2  parabolic
kx2    relative   0.015   0.0  switch  2  parabolic
kx3    relative   0.015   0.0  switch  2  parabolic
rch    relative   0.015   0.0  switch  2  parabolic
strc    relative   0.015   0.0  switch  2  parabolic
ghbc       relative   0.015   0.0  switch  2  parabolic
* parameter data
drncpp01    log    factor    99.71794      1.00e-04    10000    strc    1    0
drncpp02    log    factor    100.0231      1.00e-04    10000    strc    1    0
drncpp03    log    factor    100.0427      1.00e-04    10000    strc    1    0
drncpp04    log    factor    100.0404      1.00e-04    10000    strc    1    0
drncpp05    log    factor    100.0831      1.00e-04    10000    strc    1    0
drncpp06    log    factor    100.1379      1.00e-04    10000    strc    1    0
drncpp07    log    factor    100.0972      1.00e-04    10000    strc    1    0
drncpp08    log    factor    100.0843      1.00e-04    10000    strc    1    0
drncpp09    log    factor    100.0600      1.00e-04    10000    strc    1    0
drncpp10    log    factor    100.0760      1.00e-04    10000    strc    1    0
drncpp11    log    factor    100.0350      1.00e-04    10000    strc    1    0
drncpp12    log    factor    100.0051      1.00e-04    10000    strc    1    0
drncpp13    log    factor    99.95457      1.00e-04    10000    strc    1    0
drncpp14    log    factor    99.90363      1.00e-04    10000    strc    1    0
drncpp15    log    factor    100.0290      1.00e-04    10000    strc    1    0
drncpp16    log    factor    100.0140      1.00e-04    10000    strc    1    0
drncpp17    log    factor    99.92939      1.00e-04    10000    strc    1    0
drncpp18    log    factor    99.98077      1.00e-04    10000    strc    1    0
drncpp19    log    factor    99.99472      1.00e-04    10000    strc    1    0
drncpp20    log    factor    100.0091      1.00e-04    10000    strc    1    0
drncpp21    log    factor    100.0314      1.00e-04    10000    strc    1    0
drncpp22    log    factor    100.0394      1.00e-04    10000    strc    1    0
drncpp23    log    factor    100.0320      1.00e-04    10000    strc    1    0
drncpp24    log    factor    100.0024      1.00e-04    10000    strc    1    0
drncpp25    log    factor    100.0298      1.00e-04    10000    strc    1    0
drncpp26    log    factor    100.0482      1.00e-04    10000    strc    1    0
drncpp27    log    factor    100.1734      1.00e-04    10000    strc    1    0
drncpp28    log    factor    100.4097      1.00e-04    10000    strc    1    0
drncpp29    log    factor    100.1365      1.00e-04    10000    strc    1    0
drncpp30    log    factor    99.98709      1.00e-04    10000    strc    1    0
drncpp31    log    factor    99.95056      1.00e-04    10000    strc    1    0
ghbc1pp01    log    factor    99.79125      1.00e-04    10000    ghbc    1    0
ghbc1pp02    log    factor    99.64951      1.00e-04    10000    ghbc    1    0
ghbc1pp03    log    factor    99.62828      1.00e-04    10000    ghbc    1    0
ghbc1pp04    log    factor    99.61094      1.00e-04    10000    ghbc    1    0
ghbc1pp05    log    factor    99.59634      1.00e-04    10000    ghbc    1    0
ghbc1pp06    log    factor    99.57641      1.00e-04    10000    ghbc    1    0
ghbc1pp07    log    factor    99.55065      1.00e-04    10000    ghbc    1    0
ghbc1pp08    log    factor    99.51661      1.00e-04    10000    ghbc    1    0
ghbc1pp09    log    factor    99.47887      1.00e-04    10000    ghbc    1    0
ghbc1pp10    log    factor    99.44159      1.00e-04    10000    ghbc    1    0
ghbc1pp11    log    factor    99.41263      1.00e-04    10000    ghbc    1    0
ghbc1pp12    log    factor    99.39268      1.00e-04    10000    ghbc    1    0
ghbc1pp13    log    factor    99.36159      1.00e-04    10000    ghbc    1    0
ghbc1pp14    log    factor    99.32602      1.00e-04    10000    ghbc    1    0
ghbc1pp15    log    factor    99.33981      1.00e-04    10000    ghbc    1    0
ghbc1pp16    log    factor    99.58296      1.00e-04    10000    ghbc    1    0
ghbc1pp17    log    factor    99.82114      1.00e-04    10000    ghbc    1    0
ghbc1pp18    log    factor    99.73950      1.00e-04    10000    ghbc    1    0
ghbc1pp19    log    factor    99.64470      1.00e-04    10000    ghbc    1    0
ghbc1pp20    log    factor    99.66894      1.00e-04    10000    ghbc    1    0
ghbc1pp21    log    factor    99.71813      1.00e-04    10000    ghbc    1    0
ghbc1pp22    log    factor    99.78025      1.00e-04    10000    ghbc    1    0
ghbc1pp23    log    factor    99.85633      1.00e-04    10000    ghbc    1    0
ghbc1pp24    log    factor    99.92946      1.00e-04    10000    ghbc    1    0
ghbc1pp25    log    factor    99.96443      1.00e-04    10000    ghbc    1    0
ghbc1pp26    log    factor    99.95138      1.00e-04    10000    ghbc    1    0
ghbc1pp27    log    factor    99.92996      1.00e-04    10000    ghbc    1    0
ghbc1pp28    log    factor    99.92570      1.00e-04    10000    ghbc    1    0
ghbc1pp29    log    factor    99.92974      1.00e-04    10000    ghbc    1    0
ghbc1pp30    log    factor    99.93532      1.00e-04    10000    ghbc    1    0
ghbc1pp31    log    factor    99.94248      1.00e-04    10000    ghbc    1    0
ghbc1pp32    log    factor    99.94864      1.00e-04    10000    ghbc    1    0
ghbc1pp33    log    factor    99.95407      1.00e-04    10000    ghbc    1    0
ghbc1pp34    log    factor    99.95965      1.00e-04    10000    ghbc    1    0
ghbc1pp35    log    factor    99.96413      1.00e-04    10000    ghbc    1    0
ghbc1pp36    log    factor    99.96655      1.00e-04    10000    ghbc    1    0
ghbc1pp37    log    factor    99.96923      1.00e-04    10000    ghbc    1    0
ghbc1pp38    log    factor    99.97253      1.00e-04    10000    ghbc    1    0
ghbc1pp39    log    factor    99.97400      1.00e-04    10000    ghbc    1    0
ghbc1pp40    log    factor    99.97586      1.00e-04    10000    ghbc    1    0
ghbc1pp41    log    factor    99.98544      1.00e-04    10000    ghbc    1    0
ghbc3pp01    log    factor    99.56551      1.00e-04    10000    ghbc    1    0
ghbc3pp02    log    factor    99.27296      1.00e-04    10000    ghbc    1    0
ghbc3pp03    log    factor    99.23103      1.00e-04    10000    ghbc    1    0
ghbc3pp04    log    factor    99.20571      1.00e-04    10000    ghbc    1    0
ghbc3pp05    log    factor    99.18679      1.00e-04    10000    ghbc    1    0
ghbc3pp06    log    factor    99.16283      1.00e-04    10000    ghbc    1    0
ghbc3pp07    log    factor    99.12176      1.00e-04    10000    ghbc    1    0
ghbc3pp08    log    factor    99.06281      1.00e-04    10000    ghbc    1    0
ghbc3pp09    log    factor    98.99985      1.00e-04    10000    ghbc    1    0
ghbc3pp10    log    factor    98.95090      1.00e-04    10000    ghbc    1    0
ghbc3pp11    log    factor    98.92920      1.00e-04    10000    ghbc    1    0
ghbc3pp12    log    factor    98.92524      1.00e-04    10000    ghbc    1    0
ghbc3pp13    log    factor    98.90799      1.00e-04    10000    ghbc    1    0
ghbc3pp14    log    factor    98.87853      1.00e-04    10000    ghbc    1    0
ghbc3pp15    log    factor    98.87273      1.00e-04    10000    ghbc    1    0
ghbc3pp16    log    factor    98.88528      1.00e-04    10000    ghbc    1    0
ghbc3pp17    log    factor    98.94138      1.00e-04    10000    ghbc    1    0
ghbc3pp18    log    factor    99.05190      1.00e-04    10000    ghbc    1    0
ghbc3pp19    log    factor    99.18228      1.00e-04    10000    ghbc    1    0
ghbc3pp20    log    factor    99.30747      1.00e-04    10000    ghbc    1    0
ghbc3pp21    log    factor    99.42485      1.00e-04    10000    ghbc    1    0
ghbc3pp22    log    factor    99.52258      1.00e-04    10000    ghbc    1    0
ghbc3pp23    log    factor    99.61222      1.00e-04    10000    ghbc    1    0
ghbc3pp24    log    factor    99.68591      1.00e-04    10000    ghbc    1    0
ghbc3pp25    log    factor    99.73731      1.00e-04    10000    ghbc    1    0
ghbc3pp26    log    factor    99.77085      1.00e-04    10000    ghbc    1    0
ghbc3pp27    log    factor    99.79244      1.00e-04    10000    ghbc    1    0
ghbc3pp28    log    factor    99.81092      1.00e-04    10000    ghbc    1    0
ghbc3pp29    log    factor    99.82739      1.00e-04    10000    ghbc    1    0
ghbc3pp30    log    factor    99.84504      1.00e-04    10000    ghbc    1    0
ghbc3pp31    log    factor    99.86072      1.00e-04    10000    ghbc    1    0
ghbc3pp32    log    factor    99.87527      1.00e-04    10000    ghbc    1    0
ghbc3pp33    log    factor    99.88785      1.00e-04    10000    ghbc    1    0
ghbc3pp34    log    factor    99.89894      1.00e-04    10000    ghbc    1    0
ghbc3pp35    log    factor    99.90876      1.00e-04    10000    ghbc    1    0
ghbc3pp36    log    factor    99.91642      1.00e-04    10000    ghbc    1    0
ghbc3pp37    log    factor    99.92260      1.00e-04    10000    ghbc    1    0
ghbc3pp38    log    factor    99.92758      1.00e-04    10000    ghbc    1    0
ghbc3pp39    log    factor    99.93232      1.00e-04    10000    ghbc    1    0
ghbc3pp40    log    factor    99.93687      1.00e-04    10000    ghbc    1    0
ghbc3pp41    log    factor    99.96273      1.00e-04    10000    ghbc    1    0
kx1pp001    log    factor    4.854588      1.00e-03    1000    kx1    1    0
kx1pp002    log    factor    4.902329      1.00e-03    1000    kx1    1    0
kx1pp003    log    factor    4.933609      1.00e-03    1000    kx1    1    0
kx1pp004    log    factor    4.798112      1.00e-03    1000    kx1    1    0
kx1pp005    log    factor    5.299123      1.00e-03    1000    kx1    1    0
kx1pp006    log    factor    2.739714      1.00e-03    1000    kx1    1    0
kx1pp007    log    factor    2.636459      1.00e-03    1000    kx1    1    0
kx1pp008    log    factor    5.407333      1.00e-03    1000    kx1    1    0
kx1pp009    log    factor    5.111955      1.00e-03    1000    kx1    1    0
kx1pp010    log    factor    5.059397      1.00e-03    1000    kx1    1    0
kx1pp011    log    factor    5.088043      1.00e-03    1000    kx1    1    0
kx1pp012    log    factor    4.962956      1.00e-03    1000    kx1    1    0
kx1pp013    log    factor    7.243754      1.00e-03    1000    kx1    1    0
kx1pp014    log    factor    5.419679      1.00e-03    1000    kx1    1    0
kx1pp015    log    factor    6.311032      1.00e-03    1000    kx1    1    0
kx1pp016    log    factor    4.851154      1.00e-03    1000    kx1    1    0
kx1pp017    log    factor    4.920420      1.00e-03    1000    kx1    1    0
kx1pp018    log    factor    4.952263      1.00e-03    1000    kx1    1    0
kx1pp019    log    factor    4.853474      1.00e-03    1000    kx1    1    0
kx1pp020    log    factor    5.062321      1.00e-03    1000    kx1    1    0
kx1pp021    log    factor    4.363555      1.00e-03    1000    kx1    1    0
kx1pp022    log    factor    4.311669      1.00e-03    1000    kx1    1    0
kx1pp023    log    factor    4.904637      1.00e-03    1000    kx1    1    0
kx1pp024    log    factor    4.985973      1.00e-03    1000    kx1    1    0
kx1pp025    log    factor    4.727673      1.00e-03    1000    kx1    1    0
kx1pp026    log    factor    5.049624      1.00e-03    1000    kx1    1    0
kx1pp027    log    factor    4.425952      1.00e-03    1000    kx1    1    0
kx1pp028    log    factor    5.514839      1.00e-03    1000    kx1    1    0
kx1pp029    log    factor    5.108725      1.00e-03    1000    kx1    1    0
kx1pp030    log    factor    6.083195      1.00e-03    1000    kx1    1    0
kx1pp031    log    factor    5.055481      1.00e-03    1000    kx1    1    0
kx1pp032    log    factor    4.941289      1.00e-03    1000    kx1    1    0
kx1pp033    log    factor    4.735119      1.00e-03    1000    kx1    1    0
kx1pp034    log    factor    4.971125      1.00e-03    1000    kx1    1    0
kx1pp035    log    factor    5.044955      1.00e-03    1000    kx1    1    0
kx1pp036    log    factor    4.728482      1.00e-03    1000    kx1    1    0
kx1pp037    log    factor    4.690120      1.00e-03    1000    kx1    1    0
kx1pp038    log    factor    5.462416      1.00e-03    1000    kx1    1    0
kx1pp039    log    factor    5.231728      1.00e-03    1000    kx1    1    0
kx1pp040    log    factor    5.193180      1.00e-03    1000    kx1    1    0
kx1pp041    log    factor    5.365127      1.00e-03    1000    kx1    1    0
kx1pp042    log    factor    23.72734      1.00e-03    1000    kx1    1    0
kx1pp043    log    factor    3.823271      1.00e-03    1000    kx1    1    0
kx1pp044    log    factor    9.534738      1.00e-03    1000    kx1    1    0
kx1pp045    log    factor    6.693877      1.00e-03    1000    kx1    1    0
kx1pp046    log    factor    4.871702      1.00e-03    1000    kx1    1    0
kx1pp047    log    factor    5.228424      1.00e-03    1000    kx1    1    0
kx1pp048    log    factor    6.121687      1.00e-03    1000    kx1    1    0
kx1pp049    log    factor    5.004596      1.00e-03    1000    kx1    1    0
kx1pp050    log    factor    14.72670      1.00e-03    1000    kx1    1    0
kx1pp051    log    factor    12.71452      1.00e-03    1000    kx1    1    0
kx1pp052    log    factor    19.41168      1.00e-03    1000    kx1    1    0
kx1pp053    log    factor    5.081482      1.00e-03    1000    kx1    1    0
kx1pp054    log    factor    4.764865      1.00e-03    1000    kx1    1    0
kx1pp055    log    factor    4.973070      1.00e-03    1000    kx1    1    0
kx1pp056    log    factor    4.836345      1.00e-03    1000    kx1    1    0
kx1pp057    log    factor    4.946930      1.00e-03    1000    kx1    1    0
kx1pp058    log    factor    4.889382      1.00e-03    1000    kx1    1    0
kx1pp059    log    factor    5.047543      1.00e-03    1000    kx1    1    0
kx1pp060    log    factor    5.136230      1.00e-03    1000    kx1    1    0
kx1pp061    log    factor    4.899830      1.00e-03    1000    kx1    1    0
kx1pp062    log    factor    4.936175      1.00e-03    1000    kx1    1    0
kx1pp063    log    factor    5.055583      1.00e-03    1000    kx1    1    0
kx1pp064    log    factor    4.318101      1.00e-03    1000    kx1    1    0
kx1pp065    log    factor    5.006332      1.00e-03    1000    kx1    1    0
kx1pp066    log    factor    5.149825      1.00e-03    1000    kx1    1    0
kx1pp067    log    factor    5.171060      1.00e-03    1000    kx1    1    0
kx1pp068    log    factor    4.859681      1.00e-03    1000    kx1    1    0
kx1pp069    log    factor    4.705045      1.00e-03    1000    kx1    1    0
kx1pp070    log    factor    3.841690      1.00e-03    1000    kx1    1    0
kx1pp071    log    factor    4.729486      1.00e-03    1000    kx1    1    0
kx1pp072    log    factor    3.810636      1.00e-03    1000    kx1    1    0
kx1pp073    log    factor    5.182109      1.00e-03    1000    kx1    1    0
kx1pp074    log    factor    5.247968      1.00e-03    1000    kx1    1    0
kx1pp075    log    factor    4.901350      1.00e-03    1000    kx1    1    0
kx1pp076    log    factor    5.020451      1.00e-03    1000    kx1    1    0
kx1pp077    log    factor    3.617945      1.00e-03    1000    kx1    1    0
kx1pp078    log    factor    4.359570      1.00e-03    1000    kx1    1    0
kx1pp079    log    factor    5.260052      1.00e-03    1000    kx1    1    0
kx1pp080    log    factor    5.272290      1.00e-03    1000    kx1    1    0
kx1pp081    log    factor    5.075489      1.00e-03    1000    kx1    1    0
kx1pp082    log    factor    4.861428      1.00e-03    1000    kx1    1    0
kx1pp083    log    factor    5.492190      1.00e-03    1000    kx1    1    0
kx1pp084    log    factor    5.012188      1.00e-03    1000    kx1    1    0
kx1pp085    log    factor    4.961954      1.00e-03    1000    kx1    1    0
kx1pp086    log    factor    4.986844      1.00e-03    1000    kx1    1    0
kx1pp087    log    factor    4.931257      1.00e-03    1000    kx1    1    0
kx1pp088    log    factor    5.062649      1.00e-03    1000    kx1    1    0
kx1pp089    log    factor    8.503314      1.00e-03    1000    kx1    1    0
kx1pp090    log    factor    6.632711      1.00e-03    1000    kx1    1    0
kx1pp091    log    factor    9.144850      1.00e-03    1000    kx1    1    0
kx1pp092    log    factor    7.235996      1.00e-03    1000    kx1    1    0
kx1pp093    log    factor    4.888329      1.00e-03    1000    kx1    1    0
kx1pp094    log    factor    5.321644      1.00e-03    1000    kx1    1    0
kx1pp095    log    factor    4.986629      1.00e-03    1000    kx1    1    0
kx1pp096    log    factor    5.042258      1.00e-03    1000    kx1    1    0
kx1pp097    log    factor    4.972892      1.00e-03    1000    kx1    1    0
kx1pp098    log    factor    5.268090      1.00e-03    1000    kx1    1    0
kx1pp099    log    factor    4.641712      1.00e-03    1000    kx1    1    0
kx1pp100    log    factor    4.783346      1.00e-03    1000    kx1    1    0
kx1pp101    log    factor    4.874382      1.00e-03    1000    kx1    1    0
kx1pp102    log    factor    5.581325      1.00e-03    1000    kx1    1    0
kx1pp103    log    factor    4.993980      1.00e-03    1000    kx1    1    0
kx1pp104    log    factor    4.889373      1.00e-03    1000    kx1    1    0
kx1pp105    log    factor    4.748314      1.00e-03    1000    kx1    1    0
kx1pp106    log    factor    5.145721      1.00e-03    1000    kx1    1    0
kx1pp107    log    factor    5.239576      1.00e-03    1000    kx1    1    0
kx1pp108    log    factor    5.793419      1.00e-03    1000    kx1    1    0
kx1pp109    log    factor    8.110753      1.00e-03    1000    kx1    1    0
kx1pp110    log    factor    5.788993      1.00e-03    1000    kx1    1    0
kx1pp111    log    factor   0.3128076      1.00e-03    1000    kx1    1    0
kx1pp112    log    factor    3.788345      1.00e-03    1000    kx1    1    0
kx1pp113    log    factor    5.900161      1.00e-03    1000    kx1    1    0
kx1pp114    log    factor    6.248478      1.00e-03    1000    kx1    1    0
kx1pp115    log    factor    6.384658      1.00e-03    1000    kx1    1    0
kx1pp116    log    factor    7.050098      1.00e-03    1000    kx1    1    0
kx1pp117    log    factor    6.332204      1.00e-03    1000    kx1    1    0
kx1pp118    log    factor    5.656174      1.00e-03    1000    kx1    1    0
kx1pp119    log    factor    6.048415      1.00e-03    1000    kx1    1    0
kx1pp120    log    factor    7.143901      1.00e-03    1000    kx1    1    0
kx1pp121    log    factor    6.867527      1.00e-03    1000    kx1    1    0
kx1pp122    log    factor    3.297464      1.00e-03    1000    kx1    1    0
kx1pp123    log    factor    5.013893      1.00e-03    1000    kx1    1    0
kx1pp124    log    factor   0.8310294      1.00e-03    1000    kx1    1    0
kx1pp125    log    factor    4.781323      1.00e-03    1000    kx1    1    0
kx1pp126    log    factor    5.429474      1.00e-03    1000    kx1    1    0
kx1pp127    log    factor    4.961375      1.00e-03    1000    kx1    1    0
kx1pp128    log    factor    5.157935      1.00e-03    1000    kx1    1    0
kx1pp129    log    factor    6.588868      1.00e-03    1000    kx1    1    0
kx1pp130    log    factor    5.301120      1.00e-03    1000    kx1    1    0
kx1pp131    log    factor    5.320749      1.00e-03    1000    kx1    1    0
kx1pp132    log    factor    6.091564      1.00e-03    1000    kx1    1    0
kx1pp133    log    factor    12.29604      1.00e-03    1000    kx1    1    0
kx1pp134    log    factor    16.45851      1.00e-03    1000    kx1    1    0
kx1pp135    log    factor    12.81669      1.00e-03    1000    kx1    1    0
kx1pp136    log    factor    7.276580      1.00e-03    1000    kx1    1    0
kx1pp137    log    factor    6.884875      1.00e-03    1000    kx1    1    0
kx1pp138    log    factor    9.639967      1.00e-03    1000    kx1    1    0
kx1pp139    log    factor    6.723855      1.00e-03    1000    kx1    1    0
kx1pp140    log    factor    4.848884      1.00e-03    1000    kx1    1    0
kx1pp141    log    factor    4.748769      1.00e-03    1000    kx1    1    0
kx1pp142    log    factor    4.583090      1.00e-03    1000    kx1    1    0
kx1pp143    log    factor    4.825890      1.00e-03    1000    kx1    1    0
kx1pp144    log    factor    4.803928      1.00e-03    1000    kx1    1    0
kx1pp145    log    factor    4.779961      1.00e-03    1000    kx1    1    0
kx1pp146    log    factor    4.920589      1.00e-03    1000    kx1    1    0
kx1pp147    log    factor    4.206337      1.00e-03    1000    kx1    1    0
kx1pp148    log    factor    4.555728      1.00e-03    1000    kx1    1    0
kx1pp149    log    factor    2.504953      1.00e-03    1000    kx1    1    0
kx1pp150    log    factor    2.808631      1.00e-03    1000    kx1    1    0
kx1pp151    log    factor    3.113900      1.00e-03    1000    kx1    1    0
kx1pp152    log    factor    4.566598      1.00e-03    1000    kx1    1    0
kx1pp153    log    factor    4.533879      1.00e-03    1000    kx1    1    0
kx1pp154    log    factor    4.828419      1.00e-03    1000    kx1    1    0
kx1pp155    log    factor    5.126797      1.00e-03    1000    kx1    1    0
kx1pp156    log    factor    4.643934      1.00e-03    1000    kx1    1    0
kx1pp157    log    factor    4.916959      1.00e-03    1000    kx1    1    0
kx1pp158    log    factor    4.676914      1.00e-03    1000    kx1    1    0
kx1pp159    log    factor    4.519604      1.00e-03    1000    kx1    1    0
kx1pp160    log    factor    4.977667      1.00e-03    1000    kx1    1    0
kx1pp161    log    factor    4.645117      1.00e-03    1000    kx1    1    0
kx1pp162    log    factor    4.776724      1.00e-03    1000    kx1    1    0
kx1pp163    log    factor    4.409580      1.00e-03    1000    kx1    1    0
kx1pp164    log    factor    4.668791      1.00e-03    1000    kx1    1    0
kx1pp165    log    factor    4.871630      1.00e-03    1000    kx1    1    0
kx1pp166    log    factor    4.510403      1.00e-03    1000    kx1    1    0
kx1pp167    log    factor    4.685315      1.00e-03    1000    kx1    1    0
kx1pp168    log    factor    4.902663      1.00e-03    1000    kx1    1    0
kx1pp169    log    factor    4.966395      1.00e-03    1000    kx1    1    0
kx1pp170    log    factor    4.825060      1.00e-03    1000    kx1    1    0
kx1pp171    log    factor    4.876802      1.00e-03    1000    kx1    1    0
kx1pp172    log    factor    4.909033      1.00e-03    1000    kx1    1    0
kx1pp173    log    factor    5.288360      1.00e-03    1000    kx1    1    0
kx1pp174    log    factor    5.956675      1.00e-03    1000    kx1    1    0
kx1pp175    log    factor    7.113678      1.00e-03    1000    kx1    1    0
kx1pp176    log    factor    5.553002      1.00e-03    1000    kx1    1    0
kx1pp177    log    factor    5.026130      1.00e-03    1000    kx1    1    0
kx1pp178    log    factor    6.318718      1.00e-03    1000    kx1    1    0
kx1pp179    log    factor    4.656891      1.00e-03    1000    kx1    1    0
kx1pp180    log    factor    4.708313      1.00e-03    1000    kx1    1    0
kx1pp181    log    factor    4.739074      1.00e-03    1000    kx1    1    0
kx1pp182    log    factor    4.862928      1.00e-03    1000    kx1    1    0
kx1pp183    log    factor    4.974654      1.00e-03    1000    kx1    1    0
kx1pp184    log    factor    4.895882      1.00e-03    1000    kx1    1    0
kx1pp185    log    factor    4.874721      1.00e-03    1000    kx1    1    0
kx1pp186    log    factor    4.816663      1.00e-03    1000    kx1    1    0
kx1pp187    log    factor    4.535793      1.00e-03    1000    kx1    1    0
kx1pp188    log    factor    4.809325      1.00e-03    1000    kx1    1    0
kx1pp189    log    factor    4.778896      1.00e-03    1000    kx1    1    0
kx1pp190    log    factor    4.753552      1.00e-03    1000    kx1    1    0
kx1pp191    log    factor    4.680380      1.00e-03    1000    kx1    1    0
kx1pp192    log    factor    4.610767      1.00e-03    1000    kx1    1    0
kx1pp193    log    factor    4.391685      1.00e-03    1000    kx1    1    0
kx1pp194    log    factor    4.654498      1.00e-03    1000    kx1    1    0
kx1pp195    log    factor    4.741366      1.00e-03    1000    kx1    1    0
kx1pp196    log    factor    4.762859      1.00e-03    1000    kx1    1    0
kx1pp197    log    factor    4.888054      1.00e-03    1000    kx1    1    0
kx1pp198    log    factor    4.575832      1.00e-03    1000    kx1    1    0
kx1pp199    log    factor    5.075676      1.00e-03    1000    kx1    1    0
kx1pp200    log    factor    4.702005      1.00e-03    1000    kx1    1    0
kx1pp201    log    factor    3.123214      1.00e-03    1000    kx1    1    0
kx1pp202    log    factor    4.961513      1.00e-03    1000    kx1    1    0
kx1pp203    log    factor    4.966089      1.00e-03    1000    kx1    1    0
kx1pp204    log    factor    5.074652      1.00e-03    1000    kx1    1    0
kx1pp205    log    factor    4.844229      1.00e-03    1000    kx1    1    0
kx1pp206    log    factor    3.884931      1.00e-03    1000    kx1    1    0
kx1pp207    log    factor    5.157204      1.00e-03    1000    kx1    1    0
kx1pp208    log    factor    4.594982      1.00e-03    1000    kx1    1    0
kx1pp209    log    factor    5.208764      1.00e-03    1000    kx1    1    0
kx1pp210    log    factor    4.908738      1.00e-03    1000    kx1    1    0
kx1pp211    log    factor    4.873718      1.00e-03    1000    kx1    1    0
kx1pp212    log    factor    4.967890      1.00e-03    1000    kx1    1    0
kx1pp213    log    factor    4.914768      1.00e-03    1000    kx1    1    0
kx1pp214    log    factor    4.898101      1.00e-03    1000    kx1    1    0
kx1pp215    log    factor    4.806393      1.00e-03    1000    kx1    1    0
kx1pp216    log    factor    4.780541      1.00e-03    1000    kx1    1    0
kx1pp217    log    factor    4.714481      1.00e-03    1000    kx1    1    0
kx1pp218    log    factor    4.697871      1.00e-03    1000    kx1    1    0
kx1pp219    log    factor    4.748599      1.00e-03    1000    kx1    1    0
kx1pp220    log    factor    4.797327      1.00e-03    1000    kx1    1    0
kx1pp221    log    factor    4.657965      1.00e-03    1000    kx1    1    0
kx1pp222    log    factor    4.663393      1.00e-03    1000    kx1    1    0
kx1pp223    log    factor    4.944843      1.00e-03    1000    kx1    1    0
kx1pp224    log    factor    4.592309      1.00e-03    1000    kx1    1    0
kx1pp225    log    factor    4.769143      1.00e-03    1000    kx1    1    0
kx1pp226    log    factor    4.518088      1.00e-03    1000    kx1    1    0
kx1pp227    log    factor    4.837883      1.00e-03    1000    kx1    1    0
kx1pp228    log    factor    4.766337      1.00e-03    1000    kx1    1    0
kx1pp229    log    factor    5.135716      1.00e-03    1000    kx1    1    0
kx1pp230    log    factor    5.018623      1.00e-03    1000    kx1    1    0
kx1pp231    log    factor    5.199709      1.00e-03    1000    kx1    1    0
kx1pp232    log    factor    5.205134      1.00e-03    1000    kx1    1    0
kx1pp233    log    factor    5.048308      1.00e-03    1000    kx1    1    0
kx1pp234    log    factor    5.134420      1.00e-03    1000    kx1    1    0
kx1pp235    log    factor    5.010512      1.00e-03    1000    kx1    1    0
kx1pp236    log    factor    4.735217      1.00e-03    1000    kx1    1    0
kx1pp237    log    factor    4.424520      1.00e-03    1000    kx1    1    0
kx1pp238    log    factor    4.137919      1.00e-03    1000    kx1    1    0
kx1pp239    log    factor    4.743390      1.00e-03    1000    kx1    1    0
kx1pp240    log    factor    3.642499      1.00e-03    1000    kx1    1    0
kx1pp241    log    factor    4.257351      1.00e-03    1000    kx1    1    0
kx1pp242    log    factor    4.135433      1.00e-03    1000    kx1    1    0
kx1pp243    log    factor    4.454363      1.00e-03    1000    kx1    1    0
kx1pp244    log    factor    4.678013      1.00e-03    1000    kx1    1    0
kx1pp245    log    factor    4.589354      1.00e-03    1000    kx1    1    0
kx1pp246    log    factor    4.491312      1.00e-03    1000    kx1    1    0
kx1pp247    log    factor    4.541001      1.00e-03    1000    kx1    1    0
kx1pp248    log    factor    4.455264      1.00e-03    1000    kx1    1    0
kx1pp249    log    factor    4.597336      1.00e-03    1000    kx1    1    0
kx1pp250    log    factor    4.574396      1.00e-03    1000    kx1    1    0
kx1pp251    log    factor    4.467986      1.00e-03    1000    kx1    1    0
kx1pp252    log    factor    4.876710      1.00e-03    1000    kx1    1    0
kx1pp253    log    factor    4.821970      1.00e-03    1000    kx1    1    0
kx1pp254    log    factor    4.538753      1.00e-03    1000    kx1    1    0
kx1pp255    log    factor    4.807494      1.00e-03    1000    kx1    1    0
kx1pp256    log    factor    4.766030      1.00e-03    1000    kx1    1    0
kx1pp257    log    factor    4.528671      1.00e-03    1000    kx1    1    0
kx1pp258    log    factor    4.843827      1.00e-03    1000    kx1    1    0
kx1pp259    log    factor    4.845114      1.00e-03    1000    kx1    1    0
kx1pp260    log    factor    4.944001      1.00e-03    1000    kx1    1    0
kx1pp261    log    factor    4.954177      1.00e-03    1000    kx1    1    0
kx1pp262    log    factor    4.817482      1.00e-03    1000    kx1    1    0
kx1pp263    log    factor    4.847502      1.00e-03    1000    kx1    1    0
kx1pp264    log    factor    4.949762      1.00e-03    1000    kx1    1    0