# MODFLOW-USGs Recharge Package
 3 0
 1
external   33   1.0   (free)     -1     recharge
