# MODFLOW-USGs River Package
 1783 50
 1783 0    Stress Period 1
 19684   2.5272817E+02       1.8325193E+01       2.5172817E+02
 20004   2.5073567E+02       1.0430294E+01       2.4973567E+02
 33796   2.3582947E+02       9.5124680E+03       2.3482947E+02
 33797   2.3576807E+02       4.0005070E+04       2.3476807E+02
 33798   2.3572517E+02       4.0145474E+04       2.3472517E+02
 33799   2.3568727E+02       4.1383219E+04       2.3468727E+02
 33800   2.3564947E+02       4.2100986E+04       2.3464947E+02
 33801   2.3561167E+02       4.0250447E+04       2.3461167E+02
 33802   2.3557917E+02       4.0856030E+04       2.3457917E+02
 33803   2.3557667E+02       4.1811677E+04       2.3457667E+02
 33804   2.3557417E+02       4.2583673E+04       2.3457417E+02
 33805   2.3557177E+02       4.6931290E+04       2.3457177E+02
 33806   2.3556947E+02       1.6215689E+04       2.3456947E+02
 34115   2.3584197E+02       3.9169645E+04       2.3484197E+02
 34116   2.3579757E+02       3.3528146E+04       2.3479757E+02
 34126   2.3556867E+02       3.1099983E+04       2.3456867E+02
 34127   2.3556637E+02       4.8353166E+04       2.3456637E+02
 34128   2.3960667E+02       2.7161144E+01       2.3860667E+02
 34434   2.3687147E+02       4.5214531E+04       2.3587147E+02
 34435   2.4037957E+02       1.2461991E+04       2.3937957E+02
 34448   2.3551907E+02       3.3765717E+04       2.3451907E+02
 34753   2.3609107E+02       4.0782582E+04       2.3509107E+02
 34754   2.3965017E+02       9.3400683E+03       2.3865017E+02
 35072   2.3606917E+02       1.4025275E+04       2.3506917E+02
 35073   2.3600037E+02       2.7485034E+04       2.3500037E+02
 35391   2.3822927E+02       1.1614034E+04       2.3722927E+02
 35392   2.3774437E+02       3.8925144E+04       2.3674437E+02
 35710   2.4005397E+02       1.1191739E+04       2.3905397E+02
 35711   2.3889307E+02       3.8159890E+04       2.3789307E+02
 36030   2.4034567E+02       2.2029113E+04       2.3934567E+02
 21613   2.4235647E+02       3.0766374E+00       2.4135647E+02
 39799   2.5052807E+02       6.0108734E+01       2.4952807E+02
 40119   2.5533757E+02       9.7155258E+00       2.5433757E+02
 14953   2.5446137E+02       9.7830196E+00       2.5346137E+02
 15270   2.5292537E+02       8.2026944E+00       2.5192537E+02
 15271   2.5371307E+02       2.7815706E+01       2.5271307E+02
 15272   2.5422387E+02       2.7524476E+01       2.5322387E+02
 15273   2.5389097E+02       6.4608572E+00       2.5289097E+02
 49271   2.3120527E+02       1.0179264E+04       2.3020527E+02
 49591   2.3120447E+02       1.0472761E+01       2.3020447E+02
 577     2.7513157E+02       7.4867723E+00       2.7413157E+02
 40114   2.5196477E+02       1.8295435E+02       2.5096477E+02
 40116   2.5271017E+02       1.6169265E+02       2.5171017E+02
 40117   2.5551767E+02       1.6918641E+02       2.5451767E+02
 40118   2.5609647E+02       1.6888218E+02       2.5509647E+02
 40119   2.5533757E+02       9.7155258E+00       2.5433757E+02
 40433   2.5255327E+02       5.0480335E+01       2.5155327E+02
 40434   2.5250037E+02       2.5225767E+02       2.5150037E+02
 40435   2.5236757E+02       2.3743842E+02       2.5136757E+02
 40436   2.5211907E+02       7.0041555E+01       2.5111907E+02
 40752   2.5249767E+02       2.0268586E+02       2.5149767E+02
 40753   2.5257587E+02       1.4376348E+02       2.5157587E+02
 41071   2.5234897E+02       2.0122138E+01       2.5134897E+02
 41072   2.5299307E+02       1.8375254E+02       2.5199307E+02
 41391   2.5258777E+02       2.7155550E+02       2.5158777E+02
 41708   2.5286657E+02       1.1211478E+02       2.5186657E+02
 41709   2.5272717E+02       2.0203354E+02       2.5172717E+02
 41710   2.5279777E+02       1.9072096E+02       2.5179777E+02
 42026   2.5337317E+02       3.0535558E+01       2.5237317E+02
 42027   2.5289597E+02       2.2069544E+02       2.5189597E+02
 42028   2.5346987E+02       1.0930684E+02       2.5246987E+02
 42345   2.5336317E+02       1.7100924E+02       2.5236317E+02
 42346   2.5326607E+02       1.9052076E+02       2.5226607E+02
 42663   2.5354287E+02       9.4285845E+01       2.5254287E+02
 42664   2.5341407E+02       2.2935970E+02       2.5241407E+02
 42665   2.5325527E+02       5.2471790E+01       2.5225527E+02
 42981   2.5360447E+02       2.2311620E+02       2.5260447E+02
 42982   2.5352647E+02       2.2301421E+02       2.5252647E+02
 42983   2.5345327E+02       1.3704956E+02       2.5245327E+02
 43253   2.6238867E+02       3.8043381E+02       2.6138867E+02
 43254   2.6271897E+02       3.8339399E+03       2.6171897E+02
 43255   2.6285227E+02       1.5339165E+03       2.6185227E+02
 43299   2.5384697E+02       7.6535681E+01       2.5284697E+02
 43300   2.5354397E+02       3.2257911E+02       2.5254397E+02
 43301   2.5370697E+02       6.6396696E+01       2.5270697E+02
 43572   2.6234627E+02       1.6560076E+03       2.6134627E+02
 43573   2.6165077E+02       4.3648416E+03       2.6065077E+02
 43575   2.6130617E+02       2.2977367E+03       2.6030617E+02
 43576   2.6570637E+02       3.7975583E+03       2.6470637E+02
 43577   2.6467477E+02       3.6987038E+03       2.6367477E+02
 43578   2.6248477E+02       3.8376998E+03       2.6148477E+02
 43579   2.6185797E+02       4.3868995E+03       2.6085797E+02
 43580   2.6190287E+02       6.8613040E+02       2.6090287E+02
 43618   2.5411657E+02       2.5623741E+02       2.5311657E+02
 43619   2.5385147E+02       2.6873870E+02       2.5285147E+02
 43891   2.6297437E+02       2.8466902E+03       2.6197437E+02
 43892   2.6238617E+02       3.0274425E+03       2.6138617E+02
 43900   2.6172217E+02       5.6500965E+03       2.6072217E+02
 43901   2.6101237E+02       6.5420053E+02       2.6001237E+02
 43937   2.5372617E+02       3.9461205E+02       2.5272617E+02
 43938   2.5362267E+02       1.0327422E+02       2.5262267E+02
 44210   2.6342797E+02       2.6183240E+03       2.6242797E+02
 44211   2.6330867E+02       1.8172285E+03       2.6230867E+02
 44221   2.6085727E+02       5.1882714E+03       2.5985727E+02
 44222   2.6121297E+02       5.2260538E+03       2.6021297E+02
 44223   2.6098197E+02       2.9255389E+03       2.5998197E+02
 44256   2.5402287E+02       3.9522235E+02       2.5302287E+02
 44529   2.6321197E+02       1.7716075E+03       2.6221197E+02
 44530   2.6368667E+02       2.6964945E+03       2.6268667E+02
 44543   2.6051177E+02       5.3461181E+03       2.5951177E+02
 44575   2.5410757E+02       2.7272225E+02       2.5310757E+02
 44576   2.5392957E+02       1.1305078E+02       2.5292957E+02
 44848   2.6937407E+02       1.5521141E+03       2.6837407E+02
 44849   2.6406557E+02       2.4508118E+03       2.6306557E+02
 44863   2.5950357E+02       4.4304831E+03       2.5850357E+02
 44894   2.5419677E+02       1.3655212E+02       2.5319677E+02
 44895   2.5400677E+02       2.6436460E+02       2.5300677E+02
 45167   2.6864457E+02       2.1863850E+03       2.6764457E+02
 45168   2.7138257E+02       2.0140989E+03       2.7038257E+02
 45183   2.5941487E+02       1.2465124E+03       2.5841487E+02
 45184   2.6111847E+02       2.7103648E+03       2.6011847E+02
 45213   2.5442777E+02       9.8615692E+01       2.5342777E+02
 45214   2.5438477E+02       3.2986315E+02       2.5338477E+02
 45485   2.6779577E+02       2.0915292E+03       2.6679577E+02
 45486   2.6892987E+02       2.2516965E+03       2.6792987E+02
 45487   2.6633437E+02       5.6051380E+02       2.6533437E+02
 45504   2.6077667E+02       3.7509825E+03       2.5977667E+02
 45532   2.5506867E+02       1.2884050E+02       2.5406867E+02
 45533   2.5409767E+02       3.5079504E+02       2.5309767E+02
 45803   2.6712677E+02       1.2219798E+03       2.6612677E+02
 45804   2.6721797E+02       1.9501976E+03       2.6621797E+02
 45825   2.6031627E+02       2.7741182E+03       2.5931627E+02
 45851   2.5808577E+02       3.3840977E+02       2.5708577E+02
 45852   2.5417197E+02       2.8654202E+02       2.5317197E+02
 46122   2.6783967E+02       1.6747090E+03       2.6683967E+02
 46123   2.6739147E+02       6.4992132E+02       2.6639147E+02
 46145   2.5987447E+02       8.5281742E+02       2.5887447E+02
 46146   2.5906367E+02       1.4284326E+03       2.5806367E+02
 46169   2.5592587E+02       3.8707582E+01       2.5492587E+02
 46170   2.5574007E+02       4.7759900E+02       2.5474007E+02
 46171   2.5589087E+02       7.5136573E+01       2.5489087E+02
 46441   2.6985147E+02       1.2832856E+03       2.6885147E+02
 46442   2.6968787E+02       4.5522215E+02       2.6868787E+02
 46466   2.5942307E+02       6.9535374E+02       2.5842307E+02
 46467   2.5891247E+02       1.3457470E+03       2.5791247E+02
 46468   2.5917437E+02       1.2448068E+02       2.5817437E+02
 46488   2.5658027E+02       1.4821206E+02       2.5558027E+02
 46489   2.5593067E+02       4.5399051E+02       2.5493067E+02
 46760   2.7977657E+02       1.4722375E+02       2.7877657E+02
 46761   2.7522557E+02       1.3825958E+03       2.7422557E+02
 46788   2.5801657E+02       9.0663833E+02       2.5701657E+02
 46789   2.5892347E+02       5.6275435E+02       2.5792347E+02
 46792   2.5801987E+02       5.2313999E+02       2.5701987E+02
 46793   2.5786287E+02       6.7391591E+02       2.5686287E+02
 46794   2.5712537E+02       6.7189216E+02       2.5612537E+02
 46795   2.5846737E+02       6.6958378E+02       2.5746737E+02
 46796   2.5711407E+02       4.5108719E+02       2.5611407E+02
 46807   2.5634897E+02       2.5376432E+02       2.5534897E+02
 46808   2.5586077E+02       3.4794940E+02       2.5486077E+02
 47080   2.7676827E+02       1.4237068E+03       2.7576827E+02
 47109   2.5810227E+02       4.9872440E+02       2.5710227E+02
 47110   2.5686907E+02       7.3007455E+02       2.5586907E+02
 47111   2.5714067E+02       7.1580554E+02       2.5614067E+02
 47112   2.5784157E+02       1.5084279E+02       2.5684157E+02
 47116   2.5695267E+02       2.3123443E+02       2.5595267E+02
 47117   2.5778027E+02       7.9158387E+02       2.5678027E+02
 47126   2.5597167E+02       3.4730014E+02       2.5497167E+02
 47127   2.5578587E+02       2.3455002E+02       2.5478587E+02
 47438   2.5824217E+02       6.9986883E+02       2.5724217E+02
 47445   2.5588717E+02       4.3058090E+02       2.5488717E+02
 47446   2.5588317E+02       1.2484966E+02       2.5488317E+02
 47759   2.5714787E+02       5.7650636E+02       2.5614787E+02
 47760   2.5723217E+02       1.0911952E+02       2.5623217E+02
 47763   2.5618757E+02       2.2726482E+02       2.5518757E+02
 47764   2.5590777E+02       4.0715602E+02       2.5490777E+02
 48080   2.5687057E+02       3.4136288E+02       2.5587057E+02
 48081   2.5651737E+02       3.7364556E+02       2.5551737E+02
 48082   2.5672747E+02       3.6402681E+02       2.5572747E+02
 48083   2.5588757E+02       1.4881745E+02       2.5488757E+02
 40119   2.5533757E+02       9.7155258E+00       2.5433757E+02
 40439   2.5193487E+02       2.7216377E+01       2.5093487E+02
 40254   2.3313157E+02       8.5933472E+00       2.3213157E+02
 40255   2.3291457E+02       2.9695174E+04       2.3191457E+02
 9357    2.4990067E+02       1.8320950E+02       2.4890067E+02
 6482    2.5484537E+02       2.1732061E+01       2.5384537E+02
 6483    2.5486997E+02       5.3572272E+01       2.5386997E+02
 6484    2.5525367E+02       2.3593455E+01       2.5425367E+02
 6801    2.5495457E+02       5.0629475E+01       2.5395457E+02
 6802    2.5667047E+02       3.5721958E+01       2.5567047E+02
 7119    2.5462697E+02       2.1658785E+01       2.5362697E+02
 7120    2.5311657E+02       5.7497813E+01       2.5211657E+02
 7121    2.5408587E+02       7.0091117E+00       2.5308587E+02
 7438    2.5275457E+02       4.9061853E+01       2.5175457E+02
 7439    2.5235257E+02       3.5246634E+01       2.5135257E+02
 7757    2.5247107E+02       4.5303690E+01       2.5147107E+02
 7758    2.5587877E+02       8.5174612E+00       2.5487877E+02
 8077    2.5245977E+02       4.6572066E+01       2.5145977E+02
 8397    2.5155547E+02       4.5562502E+01       2.5055547E+02
 8717    2.5052787E+02       6.4122979E+00       2.4952787E+02
 8718    2.5371887E+02       1.4819036E+01       2.5271887E+02
 8718    2.5371887E+02       1.4819036E+01       2.5271887E+02
 9037    2.5175537E+02       2.9017743E+01       2.5075537E+02
 9038    2.5099697E+02       1.5666589E+01       2.4999697E+02
 9357    2.4990067E+02       1.8320950E+02       2.4890067E+02
 14286   2.5068017E+02       4.4470553E+01       2.4968017E+02
 14287   2.5077587E+02       1.7613041E+02       2.4977587E+02
 14288   2.5076437E+02       2.2449895E+01       2.4976437E+02
 14600   2.4948567E+02       1.2811932E+02       2.4848567E+02
 14601   2.4939617E+02       2.0392837E+02       2.4839617E+02
 14602   2.5329577E+02       2.0163592E+02       2.5229577E+02
 14603   2.5333317E+02       1.9555912E+02       2.5233317E+02
 14604   2.4975257E+02       1.8980887E+02       2.4875257E+02
 14605   2.5012377E+02       1.8248185E+02       2.4912377E+02
 14606   2.5024007E+02       1.3235553E+02       2.4924007E+02
 14912   2.5288127E+02       2.7393162E+02       2.5188127E+02
 14913   2.5469587E+02       2.4806528E+02       2.5369587E+02
 14914   2.4839057E+02       2.3428227E+02       2.4739057E+02
 14915   2.4891787E+02       2.2071060E+02       2.4791787E+02
 14916   2.4935397E+02       2.1241438E+02       2.4835397E+02
 14917   2.4927157E+02       2.0908262E+02       2.4827157E+02
 14918   2.4958737E+02       2.0585459E+02       2.4858737E+02
 14919   2.4963877E+02       2.0509080E+02       2.4863877E+02
 14920   2.4971697E+02       7.6838389E+01       2.4871697E+02
 15231   2.4819077E+02       2.8338037E+02       2.4719077E+02
 15232   2.4836317E+02       3.0775430E+01       2.4736317E+02
 15551   2.4867327E+02       3.1567564E+02       2.4767327E+02
 15868   2.4790557E+02       1.5533216E+02       2.4690557E+02
 15869   2.4798097E+02       3.0924981E+02       2.4698097E+02
 15870   2.4826897E+02       3.1846674E+02       2.4726897E+02
 15871   2.4818027E+02       1.0461449E+02       2.4718027E+02
 16187   2.4757127E+02       2.3266363E+02       2.4657127E+02
 16188   2.4805857E+02       2.0232112E+02       2.4705857E+02
 16507   2.4740737E+02       2.9051608E+02       2.4640737E+02
 16826   2.4705227E+02       3.0508704E+02       2.4605227E+02
 16827   2.4658517E+02       1.9994705E+02       2.4558517E+02
 17146   2.4650617E+02       3.4722780E+01       2.4550617E+02
 3292    2.6302567E+02       4.7613197E+01       2.6202567E+02
 24404   2.4956597E+02       1.0089032E+04       2.4856597E+02
 24724   2.4961927E+02       4.1447538E+04       2.4861927E+02
 25043   2.4985337E+02       1.5518880E+04       2.4885337E+02
 25044   2.5382987E+02       3.2463476E+04       2.5282987E+02
 25361   2.5394167E+02       1.0625220E+04       2.5294167E+02
 25362   2.5003867E+02       4.1727493E+04       2.4903867E+02
 25363   2.5036027E+02       3.7161734E+04       2.4936027E+02
 25678   2.5061067E+02       6.4475139E+03       2.4961067E+02
 25679   2.5046927E+02       3.8722497E+04       2.4946927E+02
 25680   2.5032847E+02       3.8970906E+04       2.4932847E+02
 25681   2.5019817E+02       2.9746225E+04       2.4919817E+02
 22894   2.4181177E+02       9.5934383E+03       2.4081177E+02
 23212   2.3989077E+02       2.0335004E+04       2.3889077E+02
 23213   2.3982147E+02       2.4174346E+04       2.3882147E+02
 23214   2.3977127E+02       6.6976360E+03       2.3877127E+02
 23530   2.4144937E+02       2.1172092E+04       2.4044937E+02
 23531   2.3996027E+02       2.2104437E+04       2.3896027E+02
 23532   2.3988827E+02       2.5342310E+03       2.3888827E+02
 23848   2.4309497E+02       2.6594681E+04       2.4209497E+02
 23849   2.4009197E+02       2.4989784E+04       2.3909197E+02
 24140   2.4218717E+02       2.6986181E+04       2.4118717E+02
 24141   2.4210947E+02       6.3100997E+04       2.4110947E+02
 24142   2.4667777E+02       1.8742810E+04       2.4567777E+02
 24164   2.4559877E+02       1.4473567E+04       2.4459877E+02
 24165   2.4463187E+02       2.9724678E+04       2.4363187E+02
 24166   2.4031367E+02       2.9649642E+04       2.3931367E+02
 24167   2.4021587E+02       2.8322476E+04       2.3921587E+02
 24462   2.4205977E+02       4.2614607E+04       2.4105977E+02
 24463   2.4292537E+02       7.6819632E+04       2.4192537E+02
 24469   2.4148527E+02       2.7534484E+04       2.4048527E+02
 24470   2.4204637E+02       4.1209983E+04       2.4104637E+02
 24471   2.4245227E+02       4.1386763E+04       2.4145227E+02
 24472   2.4417547E+02       4.1946814E+04       2.4317547E+02
 24473   2.4784427E+02       1.1205112E+04       2.4684427E+02
 24481   2.4571287E+02       2.9948864E+04       2.4471287E+02
 24482   2.4507237E+02       2.8944660E+04       2.4407237E+02
 24483   2.4144247E+02       2.8591538E+04       2.4044247E+02
 24484   2.4040307E+02       1.4600288E+04       2.3940307E+02
 24783   2.4192817E+02       7.6905410E+03       2.4092817E+02
 24784   2.4596847E+02       7.3949078E+04       2.4496847E+02
 24785   2.4612307E+02       5.0791420E+04       2.4512307E+02
 24786   2.4268887E+02       4.7562157E+04       2.4168887E+02
 24787   2.4399207E+02       4.4939840E+04       2.4299207E+02
 24788   2.4275977E+02       4.8173032E+04       2.4175977E+02
 24789   2.4301207E+02       2.1086882E+04       2.4201207E+02
 24793   2.4114297E+02       3.1972161E+04       2.4014297E+02
 24794   2.4101877E+02       4.3930400E+04       2.4001877E+02
 24795   2.4093267E+02       4.4011226E+04       2.3993267E+02
 24796   2.4208027E+02       4.2753654E+04       2.4108027E+02
 24797   2.4372777E+02       4.0444394E+04       2.4272777E+02
 24798   2.4289367E+02       3.7163439E+04       2.4189367E+02
 24799   2.4108187E+02       3.4103002E+04       2.4008187E+02
 24800   2.4064267E+02       2.9734257E+04       2.3964267E+02
 10965   2.5094397E+02       5.0140931E+01       2.4994397E+02
 10966   2.5147207E+02       1.8929047E+02       2.5047207E+02
 10967   2.5130457E+02       2.0082769E+02       2.5030457E+02
 10968   2.5117157E+02       1.4993033E+02       2.5017157E+02
 11288   2.5073057E+02       1.6520174E+02       2.4973057E+02
 11608   2.5034627E+02       1.5939793E+02       2.4934627E+02
 11928   2.5026087E+02       1.5758619E+02       2.4926087E+02
 12248   2.5080577E+02       1.6271287E+02       2.4980577E+02
 12568   2.4963427E+02       1.6368061E+02       2.4863427E+02
 12888   2.4925917E+02       1.8268676E+02       2.4825917E+02
 13207   2.4949817E+02       1.8777881E+02       2.4849817E+02
 13208   2.5031117E+02       3.7402544E+01       2.4931117E+02
 13526   2.5033627E+02       1.4377295E+02       2.4933627E+02
 13527   2.4982197E+02       7.2310086E+01       2.4882197E+02
 13846   2.5023277E+02       1.8773883E+02       2.4923277E+02
 14165   2.4925797E+02       1.0523796E+02       2.4825797E+02
 14166   2.4954957E+02       7.1391699E+01       2.4854957E+02
 14486   2.5050977E+02       2.1075796E+02       2.4950977E+02
 14806   2.4895237E+02       6.0110677E+01       2.4795237E+02
 14807   2.5037617E+02       2.1258602E+02       2.4937617E+02
 15127   2.5103607E+02       1.7386042E+02       2.5003607E+02
 15447   2.5023527E+02       1.8237081E+02       2.4923527E+02
 15766   2.4908127E+02       1.2225997E+02       2.4808127E+02
 15767   2.4889567E+02       7.0644013E+01       2.4789567E+02
 16086   2.4968167E+02       1.7722107E+02       2.4868167E+02
 16406   2.4970567E+02       1.6394151E+02       2.4870567E+02
 16407   2.4980577E+02       1.6523549E+02       2.4880577E+02
 16408   2.4900967E+02       1.6673666E+02       2.4800967E+02
 16409   2.4925127E+02       2.3374202E+02       2.4825127E+02
 16729   2.4978017E+02       3.6592480E+01       2.4878017E+02
 16730   2.4982627E+02       1.2622435E+02       2.4882627E+02
 17050   2.4918097E+02       1.8316599E+02       2.4818097E+02
 17370   2.4875797E+02       9.7150086E+01       2.4775797E+02
 17371   2.4928657E+02       1.3872526E+02       2.4828657E+02
 17372   2.4844317E+02       1.6053896E+02       2.4744317E+02
 17373   2.4871117E+02       1.0719567E+02       2.4771117E+02
 22024   2.5018587E+02       1.8552741E+01       2.4918587E+02
 22025   2.5017537E+02       2.3580976E+01       2.4917537E+02
 22026   2.5080597E+02       2.3492941E+01       2.4980597E+02
 22340   2.5231897E+02       2.4381565E+01       2.5131897E+02
 22341   2.5023837E+02       2.4459270E+01       2.4923837E+02
 22342   2.5022297E+02       2.4070080E+01       2.4922297E+02
 22343   2.5022167E+02       2.3814960E+01       2.4922167E+02
 22344   2.5024717E+02       5.0796434E+00       2.4924717E+02
 22659   2.5638357E+02       2.6190170E+01       2.5538357E+02
 22660   2.5075047E+02       6.6237166E+00       2.4975047E+02
 22978   2.5564867E+02       1.5014208E+01       2.5464867E+02
 22979   2.5071787E+02       1.4821233E+01       2.4971787E+02
 23298   2.5104727E+02       2.8995330E+01       2.5004727E+02
 23617   2.5264417E+02       1.7061942E+01       2.5164417E+02
 23618   2.5428987E+02       1.0888173E+01       2.5328987E+02
 23937   2.4988287E+02       2.7786271E+01       2.4888287E+02
 24256   2.4987497E+02       2.2728685E+01       2.4887497E+02
 24257   2.5515637E+02       1.6265523E+01       2.5415637E+02
 24575   2.5135587E+02       3.3595873E+01       2.5035587E+02
 24576   2.5205807E+02       9.7417350E+00       2.5105807E+02
 24894   2.4881937E+02       3.2376252E+01       2.4781937E+02
 25214   2.4945107E+02       2.7413746E+01       2.4845107E+02
 25534   2.4883737E+02       2.8652409E+01       2.4783737E+02
 25854   2.4822067E+02       1.8903046E+01       2.4722067E+02
 25855   2.4905317E+02       9.6337989E+00       2.4805317E+02
 26175   2.4938227E+02       2.8088863E+01       2.4838227E+02
 26495   2.4887337E+02       2.7227875E+01       2.4787337E+02
 26815   2.4657627E+02       1.3373973E+01       2.4557627E+02
 26816   2.4832417E+02       1.6442144E+01       2.4732417E+02
 27136   2.4836897E+02       3.0230729E+01       2.4736897E+02
 27456   2.4562067E+02       5.7302728E+00       2.4462067E+02
 27457   2.4804537E+02       2.2077403E+01       2.4704537E+02
 27777   2.4660787E+02       2.7081641E+01       2.4560787E+02
 28097   2.4483747E+02       2.7124490E+01       2.4383747E+02
 28417   2.4461047E+02       1.1764012E+01       2.4361047E+02
 28418   2.4508987E+02       1.5300989E+01       2.4408987E+02
 28738   2.4413977E+02       2.7115638E+01       2.4313977E+02
 29058   2.4482547E+02       2.7072304E+01       2.4382547E+02
 29378   2.4260127E+02       2.6727012E+01       2.4160127E+02
 29698   2.4261237E+02       2.9573926E+01       2.4161237E+02
 30017   2.4237047E+02       2.5765100E+01       2.4137047E+02
 30018   2.4326277E+02       1.6349787E+01       2.4226277E+02
 30336   2.4578737E+02       2.3416904E+01       2.4478737E+02
 30337   2.4192567E+02       6.2822442E+00       2.4092567E+02
 30656   2.4190837E+02       2.7285006E+01       2.4090837E+02
 30975   2.4133517E+02       8.1471199E+00       2.4033517E+02
 30976   2.4314007E+02       2.4325785E+01       2.4214007E+02
 31295   2.4115487E+02       2.5247649E+01       2.4015487E+02
 26451   2.4235677E+02       2.8730956E+01       2.4135677E+02
 26452   2.4183397E+02       5.8752736E+01       2.4083397E+02
 26769   2.4123347E+02       1.7702915E+01       2.4023347E+02
 26770   2.4111207E+02       7.6876117E+01       2.4011207E+02
 26771   2.4123197E+02       5.6473270E+01       2.4023197E+02
 51832   2.4567887E+02       1.0703077E+02       2.4467887E+02
 52153   2.5032877E+02       1.4150077E+02       2.4932877E+02
 52474   2.5032877E+02       1.2328239E+02       2.4932877E+02
 52794   2.5032877E+02       1.0335523E+02       2.4932877E+02
 53114   2.5032877E+02       1.0290954E+02       2.4932877E+02
 53434   2.5032877E+02       1.0167365E+02       2.4932877E+02
 53754   2.5032877E+02       1.0135504E+02       2.4932877E+02
 54074   2.5032877E+02       1.1050204E+02       2.4932877E+02
 54393   2.5032877E+02       1.9465039E+01       2.4932877E+02
 54394   2.5032877E+02       1.0153936E+02       2.4932877E+02
 54713   2.5032877E+02       1.1279671E+02       2.4932877E+02
 55033   2.5032877E+02       1.0307857E+02       2.4932877E+02
 55353   2.5032877E+02       1.0325372E+02       2.4932877E+02
 55673   2.5032877E+02       1.3051886E+02       2.4932877E+02
 40255   2.3291457E+02       2.9695174E+04       2.3191457E+02
 40256   2.3289907E+02       4.7142818E+04       2.3189907E+02
 40257   2.3288707E+02       5.2756668E+04       2.3188707E+02
 40578   2.3287557E+02       5.1580318E+04       2.3187557E+02
 40579   2.3286137E+02       3.2851766E+04       2.3186137E+02
 40899   2.3286297E+02       2.1164309E+04       2.3186297E+02
 40900   2.3285007E+02       4.7196974E+04       2.3185007E+02
 40901   2.3283847E+02       3.6010730E+04       2.3183847E+02
 41221   2.3283887E+02       8.1365016E+03       2.3183887E+02
 41222   2.3282787E+02       4.1502704E+04       2.3182787E+02
 41223   2.3281747E+02       3.9580277E+04       2.3181747E+02
 41224   2.3280737E+02       1.4392968E+04       2.3180737E+02
 41544   2.3280507E+02       2.3335428E+04       2.3180507E+02
 41545   2.3279487E+02       3.6396626E+04       2.3179487E+02
 41546   2.3278497E+02       3.4030032E+04       2.3178497E+02
 41867   2.3276397E+02       3.5922007E+04       2.3176397E+02
 41868   2.3274557E+02       3.5902199E+04       2.3174557E+02
 41869   2.3273367E+02       2.1200948E+04       2.3173367E+02
 42189   2.3273177E+02       1.3381345E+04       2.3173177E+02
 42190   2.3272587E+02       3.3311824E+04       2.3172587E+02
 42191   2.3272027E+02       3.2121424E+04       2.3172027E+02
 42192   2.3271477E+02       3.0498793E+04       2.3171477E+02
 42193   2.3417577E+02       2.8236591E+04       2.3317577E+02
 42194   2.3357897E+02       2.5795535E+04       2.3257897E+02
 42195   2.3269617E+02       2.3886370E+04       2.3169617E+02
 42196   2.3268927E+02       2.3671414E+04       2.3168927E+02
 42197   2.3471687E+02       4.2223916E+03       2.3371687E+02
 42517   2.3268087E+02       2.5431632E+04       2.3168087E+02
 42518   2.3319407E+02       2.8391174E+03       2.3219407E+02
 42838   2.3267237E+02       2.5444473E+04       2.3167237E+02
 43158   2.3266957E+02       6.1202018E+03       2.3166957E+02
 43159   2.3266307E+02       2.0570654E+04       2.3166307E+02
 43479   2.3265997E+02       1.6374308E+04       2.3165997E+02
 43480   2.3620257E+02       1.2531564E+04       2.3520257E+02
 43800   2.3265047E+02       2.8844714E+04       2.3165047E+02
 43801   2.4133087E+02       2.7056978E+03       2.4033087E+02
 44121   2.3264157E+02       3.1486497E+04       2.3164157E+02
 44441   2.3263777E+02       3.0639774E+04       2.3163777E+02
 44762   2.3262857E+02       3.2008377E+04       2.3162857E+02
 44776   2.3190307E+02       3.3056835E+04       2.3090307E+02
 44777   2.3185497E+02       3.6421354E+04       2.3085497E+02
 44778   2.3182227E+02       3.6133414E+04       2.3082227E+02
 44779   2.3180177E+02       3.7805114E+04       2.3080177E+02
 44780   2.3178377E+02       4.2797812E+04       2.3078377E+02
 45082   2.3262377E+02       3.2367774E+04       2.3162377E+02
 45095   2.3193847E+02       4.0826560E+04       2.3093847E+02
 45096   2.3188347E+02       1.0742618E+04       2.3088347E+02
 45101   2.3173677E+02       4.0538568E+04       2.3073677E+02
 45102   2.3171037E+02       2.3355440E+04       2.3071037E+02
 45402   2.3261907E+02       1.7310763E+04       2.3161907E+02
 45403   2.3261507E+02       1.5229894E+04       2.3161507E+02
 45414   2.3199237E+02       3.1449665E+04       2.3099237E+02
 45415   2.3192737E+02       1.0723480E+04       2.3092737E+02
 45422   2.3168677E+02       1.9880344E+04       2.3068677E+02
 45423   2.3166227E+02       4.3445237E+04       2.3066227E+02
 45723   2.3261027E+02       3.2335437E+04       2.3161027E+02
 45734   2.3198777E+02       3.8413791E+04       2.3098777E+02
 45744   2.3161787E+02       4.8624817E+04       2.3061787E+02
 45745   2.3159237E+02       3.6689752E+03       2.3059237E+02
 46043   2.3260517E+02       3.2489314E+04       2.3160517E+02
 46053   2.3206507E+02       1.1466902E+04       2.3106507E+02
 46054   2.3198907E+02       2.6134603E+04       2.3098907E+02
 46065   2.3157377E+02       4.7257121E+04       2.3057377E+02
 46066   2.3154757E+02       3.6885983E+03       2.3054757E+02
 46364   2.3259647E+02       3.0913702E+04       2.3159647E+02
 46373   2.3207087E+02       3.6815875E+04       2.3107087E+02
 46386   2.3153017E+02       4.7681274E+04       2.3053017E+02
 46387   2.3150247E+02       3.7293182E+03       2.3050247E+02
 46684   2.3258727E+02       3.3911378E+04       2.3158727E+02
 46693   2.3207957E+02       3.6375085E+04       2.3107957E+02
 46707   2.3148547E+02       4.4994663E+04       2.3048547E+02
 47004   2.3292617E+02       1.9849828E+04       2.3192617E+02
 47005   2.3258067E+02       1.6065406E+04       2.3158067E+02
 47012   2.3217547E+02       2.6310337E+04       2.3117547E+02
 47013   2.3208737E+02       9.7075586E+03       2.3108737E+02
 47027   2.3146777E+02       1.4958971E+04       2.3046777E+02
 47028   2.3143637E+02       2.9415233E+04       2.3043637E+02
 47325   2.3256347E+02       3.8090622E+04       2.3156347E+02
 47332   2.3219337E+02       3.5968686E+04       2.3119337E+02
 47348   2.3141537E+02       4.0229487E+04       2.3041537E+02
 47645   2.3616977E+02       4.5195551E+03       2.3516977E+02
 47646   2.3252507E+02       3.4181952E+04       2.3152507E+02
 47651   2.3241517E+02       5.4884903E+03       2.3141517E+02
 47652   2.3221077E+02       3.0372194E+04       2.3121077E+02
 47668   2.3139497E+02       1.7094922E+04       2.3039497E+02
 47669   2.3135777E+02       2.1687034E+04       2.3035777E+02
 47966   2.3250577E+02       2.5907740E+04       2.3150577E+02
 47967   2.3248407E+02       1.3830981E+04       2.3148407E+02
 47971   2.3230047E+02       4.2034431E+04       2.3130047E+02
 47989   2.3133337E+02       3.8800872E+04       2.3033337E+02
 48287   2.3245397E+02       4.0751216E+04       2.3145397E+02
 48290   2.3235537E+02       3.4939346E+04       2.3135537E+02