pcf
* control data
restart estimation
     865     307       8       0       5
      5      4                    single  point
 10.0  -3.0  0.3  0.03  10 999  lamforgive
 10.0  10.0  0.001 absparmax(1)=1.0
 0.1
   0  0.005  4  4  0.005  4
 0  0  0  PARSAVEITN
* singular value decomposition
1
  5000  5e-7
0
* parameter groups
kx2bas        relative   0.015   0.0  switch  2  parabolic
kx2mul        relative   0.015   0.0  switch  2  parabolic
k13mul        relative   0.015   0.0  switch  2  parabolic
vanis         relative   0.015   0.0  switch  2  parabolic
rechmul       relative   0.015   0.0  switch  2  parabolic
rcmul         relative   0.015   0.0  switch  2  parabolic
rhadd         absolute   0.10    0.0  switch  2  parabolic
wmul          relative   0.015   0.0  switch  2  parabolic
* parameter data
pp1_kx1       log    factor    51.70801      1.000000        1000.000            kx2bas   1.0   0.0
pp1_kx2       log    factor    60.40164      1.000000        1000.000            kx2bas   1.0   0.0
pp1_kx3       log    factor    96.23994      1.000000        1000.000            kx2bas   1.0   0.0
pp1_kx4       log    factor    56.23839      1.000000        1000.000            kx2bas   1.0   0.0
pp1_kx5       log    factor    75.43776      1.000000        1000.000            kx2bas   1.0   0.0
pp1_kx6       log    factor    90.07544      1.000000        1000.000            kx2bas   1.0   0.0
pp1_kx7       log    factor    103.6592      1.000000        1000.000            kx2bas   1.0   0.0
pp1_kx8       log    factor    96.72291      1.000000        1000.000            kx2bas   1.0   0.0
pp1_kx9       log    factor    74.96630      1.000000        1000.000            kx2bas   1.0   0.0
pp1_kx10      log    factor    98.90343      1.000000        1000.000            kx2bas   1.0   0.0
pp1_kx11      log    factor    67.46192      1.000000        1000.000            kx2bas   1.0   0.0
pp1_kx12      log    factor    60.65509      1.000000        1000.000            kx2bas   1.0   0.0
pp1_kx13      log    factor    74.26172      1.000000        1000.000            kx2bas   1.0   0.0
pp1_kx14      log    factor    102.8726      1.000000        1000.000            kx2bas   1.0   0.0
pp1_kx15      log    factor    31.61470      1.000000        1000.000            kx2bas   1.0   0.0
pp1_kx16      log    factor    20.08251      1.000000        1000.000            kx2bas   1.0   0.0
pp1_kx17      log    factor    56.51874      1.000000        1000.000            kx2bas   1.0   0.0
pp1_kx18      log    factor    17.18644      1.000000        1000.000            kx2bas   1.0   0.0
pp1_kx19      log    factor    15.14394      1.000000        1000.000            kx2bas   1.0   0.0
pp1_kx20      log    factor    21.03898      1.000000        1000.000            kx2bas   1.0   0.0
pp1_kx21      log    factor    24.08707      1.000000        1000.000            kx2bas   1.0   0.0
pp1_kx22      log    factor    87.00081      1.000000        1000.000            kx2bas   1.0   0.0
pp1_kx23      log    factor    52.86904      1.000000        1000.000            kx2bas   1.0   0.0
pp1_kx24      log    factor    59.14324      1.000000        1000.000            kx2bas   1.0   0.0
pp1_kx25      log    factor    54.97516      1.000000        1000.000            kx2bas   1.0   0.0
pp1_kx26      log    factor    37.00686      1.000000        1000.000            kx2bas   1.0   0.0
pp1_kx27      log    factor    27.46692      1.000000        1000.000            kx2bas   1.0   0.0
pp1_kx28      log    factor    54.40977      1.000000        1000.000            kx2bas   1.0   0.0
pp1_kx29      log    factor    19.38629      1.000000        1000.000            kx2bas   1.0   0.0
pp1_kx30      log    factor    46.02134      1.000000        1000.000            kx2bas   1.0   0.0
pp1_kx31      log    factor    19.42290      1.000000        1000.000            kx2bas   1.0   0.0
pp1_kx32      log    factor    51.05685      1.000000        1000.000            kx2bas   1.0   0.0
pp2_mul1      log    factor    1.147107      0.5000000e-02    100.0000            kx2mul   1.0   0.0
pp2_mul2      log    factor    2.007356      0.5000000e-02    100.0000            kx2mul   1.0   0.0
pp2_mul3      log    factor    1.217843      0.5000000e-02    100.0000            kx2mul   1.0   0.0
pp2_mul4      log    factor    1.058336      0.5000000e-02    100.0000            kx2mul   1.0   0.0
pp2_mul5      log    factor   0.9889416      0.5000000e-02    100.0000            kx2mul   1.0   0.0
pp2_mul6      log    factor   0.8157116      0.5000000e-02    100.0000            kx2mul   1.0   0.0
pp2_mul7      log    factor   0.5684085      0.5000000e-02    100.0000            kx2mul   1.0   0.0
pp2_mul8      log    factor   0.5701950      0.5000000e-02    100.0000            kx2mul   1.0   0.0
pp2_mul9      log    factor   0.6981449      0.5000000e-02    100.0000            kx2mul   1.0   0.0
pp2_mul10     log    factor   0.7482957      0.5000000e-02    100.0000            kx2mul   1.0   0.0
pp2_mul11     log    factor    1.323606      0.5000000e-02    100.0000            kx2mul   1.0   0.0
pp2_mul12     log    factor   0.1044517      0.5000000e-02    100.0000            kx2mul   1.0   0.0
pp2_mul13     log    factor   7.1895137E-02  0.5000000e-02    100.0000            kx2mul   1.0   0.0
pp2_mul14     log    factor   0.4820554      0.5000000e-02    100.0000            kx2mul   1.0   0.0
pp2_mul15     log    factor   0.1893874      0.5000000e-02    100.0000            kx2mul   1.0   0.0
pp2_mul16     log    factor   0.3397764      0.5000000e-02    100.0000            kx2mul   1.0   0.0
pp2_mul17     log    factor    1.365819      0.5000000e-02    100.0000            kx2mul   1.0   0.0
pp2_mul18     log    factor   0.6077059      0.5000000e-02    100.0000            kx2mul   1.0   0.0
pp2_mul19     log    factor   0.6770680      0.5000000e-02    100.0000            kx2mul   1.0   0.0
pp2_mul20     log    factor    1.278535      0.5000000e-02    100.0000            kx2mul   1.0   0.0
pp2_mul21     log    factor   0.9573805      0.5000000e-02    100.0000            kx2mul   1.0   0.0
pp2_mul22     log    factor    9.379621      0.5000000e-02    100.0000            kx2mul   1.0   0.0
pp2_mul23     log    factor   0.9802294      0.5000000e-02    100.0000            kx2mul   1.0   0.0
pp2_mul24     log    factor   0.4404730      0.5000000e-02    100.0000            kx2mul   1.0   0.0
pp2_mul25     log    factor    1.147274      0.5000000e-02    100.0000            kx2mul   1.0   0.0
pp2_mul26     log    factor   0.9053951      0.5000000e-02    100.0000            kx2mul   1.0   0.0
pp2_mul27     log    factor    1.187139      0.5000000e-02    100.0000            kx2mul   1.0   0.0
pp2_mul28     log    factor    1.283807      0.5000000e-02    100.0000            kx2mul   1.0   0.0
pp2_mul29     log    factor    1.482640      0.5000000e-02    100.0000            kx2mul   1.0   0.0
pp2_mul30     log    factor    100.0000      0.5000000e-02    100.0000            kx2mul   1.0   0.0
pp2_mul31     log    factor   1.1810595E-02  0.5000000e-02    100.0000            kx2mul   1.0   0.0
pp2_mul32     log    factor   0.2555411      0.5000000e-02    100.0000            kx2mul   1.0   0.0
pp2_mul33     log    factor    1.155452      0.5000000e-02    100.0000            kx2mul   1.0   0.0
pp2_mul34     log    factor   0.2653633      0.5000000e-02    100.0000            kx2mul   1.0   0.0
pp2_mul35     log    factor   0.1187282      0.5000000e-02    100.0000            kx2mul   1.0   0.0
pp2_mul36     log    factor   0.6070408      0.5000000e-02    100.0000            kx2mul   1.0   0.0
pp2_mul37     log    factor   0.4500695      0.5000000e-02    100.0000            kx2mul   1.0   0.0
pp2_mul38     log    factor    1.204956      0.5000000e-02    100.0000            kx2mul   1.0   0.0
pp2_mul39     log    factor    7.805621      0.5000000e-02    100.0000            kx2mul   1.0   0.0
pp2_mul40     log    factor    1.037653      0.5000000e-02    100.0000            kx2mul   1.0   0.0
pp2_mul41     log    factor    1.301148      0.5000000e-02    100.0000            kx2mul   1.0   0.0
pp2_mul42     log    factor    1.821018      0.5000000e-02    100.0000            kx2mul   1.0   0.0
pp2_mul43     log    factor    1.370416      0.5000000e-02    100.0000            kx2mul   1.0   0.0
pp2_mul44     log    factor    4.194455      0.5000000e-02    100.0000            kx2mul   1.0   0.0
pp2_mul45     log    factor    25.43501      0.5000000e-02    100.0000            kx2mul   1.0   0.0
pp2_mul46     log    factor   0.3780187      0.5000000e-02    100.0000            kx2mul   1.0   0.0
pp2_mul47     log    factor   0.7076020      0.5000000e-02    100.0000            kx2mul   1.0   0.0
pp2_mul48     log    factor    1.124451      0.5000000e-02    100.0000            kx2mul   1.0   0.0
pp2_mul49     log    factor    1.876788      0.5000000e-02    100.0000            kx2mul   1.0   0.0
pp2_mul50     log    factor    2.581513      0.5000000e-02    100.0000            kx2mul   1.0   0.0
pp2_mul51     log    factor    2.324815      0.5000000e-02    100.0000            kx2mul   1.0   0.0
pp2_mul52     log    factor    1.335821      0.5000000e-02    100.0000            kx2mul   1.0   0.0
pp2_mul53     log    factor    1.057088      0.5000000e-02    100.0000            kx2mul   1.0   0.0
pp2_mul54     log    factor    6.335218      0.5000000e-02    100.0000            kx2mul   1.0   0.0
pp2_mul55     log    factor   0.3811903      0.5000000e-02    100.0000            kx2mul   1.0   0.0
pp2_mul56     log    factor   5.8161662E-02  0.5000000e-02    100.0000            kx2mul   1.0   0.0
pp2_mul57     log    factor   2.5282619E-02  0.5000000e-02    100.0000            kx2mul   1.0   0.0
pp2_mul58     log    factor    2.372591      0.5000000e-02    100.0000            kx2mul   1.0   0.0
pp2_mul59     log    factor   0.6097087      0.5000000e-02    100.0000            kx2mul   1.0   0.0
pp2_mul60     log    factor    2.926508      0.5000000e-02    100.0000            kx2mul   1.0   0.0
pp2_mul61     log    factor   0.3407701      0.5000000e-02    100.0000            kx2mul   1.0   0.0
pp2_mul62     log    factor    44.18239      0.5000000e-02    100.0000            kx2mul   1.0   0.0
pp2_mul63     log    factor    6.165975      0.5000000e-02    100.0000            kx2mul   1.0   0.0
pp2_mul64     log    factor   0.9786003      0.5000000e-02    100.0000            kx2mul   1.0   0.0
pp2_mul65     log    factor    1.026578      0.5000000e-02    100.0000            kx2mul   1.0   0.0
pp2_mul66     log    factor    1.460119      0.5000000e-02    100.0000            kx2mul   1.0   0.0
pp2_mul67     log    factor   0.2830057      0.5000000e-02    100.0000            kx2mul   1.0   0.0
pp2_mul68     log    factor   5.6865729E-02  0.5000000e-02    100.0000            kx2mul   1.0   0.0
pp2_mul69     log    factor   0.4239693      0.5000000e-02    100.0000            kx2mul   1.0   0.0
pp2_mul70     log    factor   0.1151422      0.5000000e-02    100.0000            kx2mul   1.0   0.0
pp2_mul71     log    factor    29.92047      0.5000000e-02    100.0000            kx2mul   1.0   0.0
pp2_mul72     log    factor    1.799525      0.5000000e-02    100.0000            kx2mul   1.0   0.0
pp2_mul73     log    factor   0.8320716      0.5000000e-02    100.0000            kx2mul   1.0   0.0
pp2_mul74     log    factor    1.160297      0.5000000e-02    100.0000            kx2mul   1.0   0.0
pp2_mul75     log    factor    1.744874      0.5000000e-02    100.0000            kx2mul   1.0   0.0
pp2_mul76     log    factor    1.316375      0.5000000e-02    100.0000            kx2mul   1.0   0.0
pp2_mul77     log    factor   0.3400086      0.5000000e-02    100.0000            kx2mul   1.0   0.0
pp2_mul78     log    factor   0.1110383      0.5000000e-02    100.0000            kx2mul   1.0   0.0
pp2_mul79     log    factor    5.272218      0.5000000e-02    100.0000            kx2mul   1.0   0.0
pp2_mul80     log    factor   0.2526064      0.5000000e-02    100.0000            kx2mul   1.0   0.0
pp2_mul81     log    factor   0.2005245      0.5000000e-02    100.0000            kx2mul   1.0   0.0
pp2_mul82     log    factor   0.6459749      0.5000000e-02    100.0000            kx2mul   1.0   0.0
pp2_mul83     log    factor    1.010101      0.5000000e-02    100.0000            kx2mul   1.0   0.0
pp2_mul84     log    factor    2.930394      0.5000000e-02    100.0000            kx2mul   1.0   0.0
pp2_mul85     log    factor   0.1539132      0.5000000e-02    100.0000            kx2mul   1.0   0.0
pp2_mul86     log    factor   0.5608433      0.5000000e-02    100.0000            kx2mul   1.0   0.0
pp2_mul87     log    factor   0.1633574      0.5000000e-02    100.0000            kx2mul   1.0   0.0
pp2_mul88     log    factor   0.8894691      0.5000000e-02    100.0000            kx2mul   1.0   0.0
pp2_mul89     log    factor    1.371608      0.5000000e-02    100.0000            kx2mul   1.0   0.0
pp2_mul90     log    factor   0.5564603      0.5000000e-02    100.0000            kx2mul   1.0   0.0
pp2_mul91     log    factor   8.5779805E-02  0.5000000e-02    100.0000            kx2mul   1.0   0.0
pp2_mul92     log    factor   0.4707596      0.5000000e-02    100.0000            kx2mul   1.0   0.0
pp2_mul93     log    factor   4.5414541E-02  0.5000000e-02    100.0000            kx2mul   1.0   0.0
pp2_mul94     log    factor   0.8017114      0.5000000e-02    100.0000            kx2mul   1.0   0.0
pp2_mul95     log    factor   0.4021779      0.5000000e-02    100.0000            kx2mul   1.0   0.0
pp2_mul96     log    factor   0.4095796      0.5000000e-02    100.0000            kx2mul   1.0   0.0
pp2_mul97     log    factor   2.4645844E-02  0.5000000e-02    100.0000            kx2mul   1.0   0.0
pp2_mul98     log    factor   0.7809075      0.5000000e-02    100.0000            kx2mul   1.0   0.0
pp2_mul99     log    factor    1.783227      0.5000000e-02    100.0000            kx2mul   1.0   0.0
pp2_mul100    log    factor    12.09526      0.5000000e-02    100.0000            kx2mul   1.0   0.0
pp2_mul101    log    factor   0.4101003      0.5000000e-02    100.0000            kx2mul   1.0   0.0
pp2_mul102    log    factor   0.8825990      0.5000000e-02    100.0000            kx2mul   1.0   0.0
pp2_mul103    log    factor   0.9673149      0.5000000e-02    100.0000            kx2mul   1.0   0.0
pp2_mul104    log    factor   0.4207961      0.5000000e-02    100.0000            kx2mul   1.0   0.0
pp2_mul105    log    factor   5.6219798E-02  0.5000000e-02    100.0000            kx2mul   1.0   0.0
pp2_mul106    log    factor   0.2671889      0.5000000e-02    100.0000            kx2mul   1.0   0.0
pp2_mul107    log    factor   0.5322082      0.5000000e-02    100.0000            kx2mul   1.0   0.0
pp2_mul108    log    factor   0.3950882      0.5000000e-02    100.0000            kx2mul   1.0   0.0
pp2_mul109    log    factor   0.6320164      0.5000000e-02    100.0000            kx2mul   1.0   0.0
pp2_mul110    log    factor    1.056896      0.5000000e-02    100.0000            kx2mul   1.0   0.0
pp2_mul111    log    factor   0.7926937      0.5000000e-02    100.0000            kx2mul   1.0   0.0
pp2_mul112    log    factor   0.5614579      0.5000000e-02    100.0000            kx2mul   1.0   0.0
pp2_mul113    log    factor   4.6844123E-02  0.5000000e-02    100.0000            kx2mul   1.0   0.0
pp2_mul114    log    factor    3.167278      0.5000000e-02    100.0000            kx2mul   1.0   0.0
pp2_mul115    log    factor   0.9336539      0.5000000e-02    100.0000            kx2mul   1.0   0.0
pp2_mul116    log    factor    5.018911      0.5000000e-02    100.0000            kx2mul   1.0   0.0
pp2_mul117    log    factor    6.808642      0.5000000e-02    100.0000            kx2mul   1.0   0.0
pp2_mul118    log    factor    1.551326      0.5000000e-02    100.0000            kx2mul   1.0   0.0
pp2_mul119    log    factor    1.229004      0.5000000e-02    100.0000            kx2mul   1.0   0.0
pp2_mul120    log    factor    1.203183      0.5000000e-02    100.0000            kx2mul   1.0   0.0
pp2_mul121    log    factor   0.8168836      0.5000000e-02    100.0000            kx2mul   1.0   0.0
pp2_mul122    log    factor   0.5399831      0.5000000e-02    100.0000            kx2mul   1.0   0.0
pp2_mul123    log    factor    1.677020      0.5000000e-02    100.0000            kx2mul   1.0   0.0
pp2_mul124    log    factor    1.497747      0.5000000e-02    100.0000            kx2mul   1.0   0.0
pp2_mul125    log    factor    9.948892      0.5000000e-02    100.0000            kx2mul   1.0   0.0
pp2_mul126    log    factor   0.2586124      0.5000000e-02    100.0000            kx2mul   1.0   0.0
pp2_mul127    log    factor    1.562281      0.5000000e-02    100.0000            kx2mul   1.0   0.0
pp2_mul128    log    factor    4.723898      0.5000000e-02    100.0000            kx2mul   1.0   0.0
pp2_mul129    log    factor   0.1144742      0.5000000e-02    100.0000            kx2mul   1.0   0.0
pp2_mul130    log    factor    1.099293      0.5000000e-02    100.0000            kx2mul   1.0   0.0
pp2_mul131    log    factor   0.5171569      0.5000000e-02    100.0000            kx2mul   1.0   0.0
pp2_mul132    log    factor   0.3862062      0.5000000e-02    100.0000            kx2mul   1.0   0.0
pp2_mul133    log    factor   0.6446580      0.5000000e-02    100.0000            kx2mul   1.0   0.0
pp2_mul134    log    factor    1.091195      0.5000000e-02    100.0000            kx2mul   1.0   0.0
pp2_mul135    log    factor    1.520021      0.5000000e-02    100.0000            kx2mul   1.0   0.0
pp2_mul136    log    factor   0.2792403      0.5000000e-02    100.0000            kx2mul   1.0   0.0
pp2_mul137    log    factor    5.505532      0.5000000e-02    100.0000            kx2mul   1.0   0.0
pp2_mul138    log    factor   0.6075730      0.5000000e-02    100.0000            kx2mul   1.0   0.0
pp2_mul139    log    factor    1.287119      0.5000000e-02    100.0000            kx2mul   1.0   0.0
pp2_mul140    log    factor   0.2617380      0.5000000e-02    100.0000            kx2mul   1.0   0.0
pp2_mul141    log    factor   0.7729120      0.5000000e-02    100.0000            kx2mul   1.0   0.0
pp2_mul142    log    factor   0.9045931      0.5000000e-02    100.0000            kx2mul   1.0   0.0
pp2_mul143    log    factor    1.001688      0.5000000e-02    100.0000            kx2mul   1.0   0.0
pp2_mul144    log    factor   0.6423835      0.5000000e-02    100.0000            kx2mul   1.0   0.0
pp2_mul145    log    factor   0.6444324      0.5000000e-02    100.0000            kx2mul   1.0   0.0
pp2_mul146    log    factor   0.7805486      0.5000000e-02    100.0000            kx2mul   1.0   0.0
pp2_mul147    log    factor   0.2782793      0.5000000e-02    100.0000            kx2mul   1.0   0.0
pp2_mul148    log    factor   0.6664554      0.5000000e-02    100.0000            kx2mul   1.0   0.0
pp2_mul149    log    factor   4.8186184E-02  0.5000000e-02    100.0000            kx2mul   1.0   0.0
pp2_mul150    log    factor   0.7823342      0.5000000e-02    100.0000            kx2mul   1.0   0.0
pp2_mul151    log    factor    28.03840      0.5000000e-02    100.0000            kx2mul   1.0   0.0
pp2_mul152    log    factor   0.5011776      0.5000000e-02    100.0000            kx2mul   1.0   0.0
pp2_mul153    log    factor   0.5037479      0.5000000e-02    100.0000            kx2mul   1.0   0.0
pp2_mul154    log    factor   0.5079983      0.5000000e-02    100.0000            kx2mul   1.0   0.0
pp2_mul155    log    factor   0.5594942      0.5000000e-02    100.0000            kx2mul   1.0   0.0
pp2_mul156    log    factor   0.5737097      0.5000000e-02    100.0000            kx2mul   1.0   0.0
pp2_mul157    log    factor   0.3518353      0.5000000e-02    100.0000            kx2mul   1.0   0.0
pp2_mul158    log    factor    1.127214      0.5000000e-02    100.0000            kx2mul   1.0   0.0
pp2_mul159    log    factor    4.030767      0.5000000e-02    100.0000            kx2mul   1.0   0.0
pp2_mul160    log    factor    17.12758      0.5000000e-02    100.0000            kx2mul   1.0   0.0
pp2_mul161    log    factor    2.357947      0.5000000e-02    100.0000            kx2mul   1.0   0.0
pp2_mul162    log    factor    7.422892      0.5000000e-02    100.0000            kx2mul   1.0   0.0
pp2_mul163    log    factor   0.2441340      0.5000000e-02    100.0000            kx2mul   1.0   0.0
pp2_mul164    log    factor   0.5169335      0.5000000e-02    100.0000            kx2mul   1.0   0.0
pp2_mul165    log    factor   0.8992446      0.5000000e-02    100.0000            kx2mul   1.0   0.0
pp2_mul166    log    factor    1.308616      0.5000000e-02    100.0000            kx2mul   1.0   0.0
pp2_mul167    log    factor   0.2734432      0.5000000e-02    100.0000            kx2mul   1.0   0.0
pp2_mul168    log    factor    1.169514      0.5000000e-02    100.0000            kx2mul   1.0   0.0
pp2_mul169    log    factor   0.7620185      0.5000000e-02    100.0000            kx2mul   1.0   0.0
pp2_mul170    log    factor   0.2081268      0.5000000e-02    100.0000            kx2mul   1.0   0.0
pp2_mul171    log    factor   0.3354041      0.5000000e-02    100.0000            kx2mul   1.0   0.0
pp2_mul172    log    factor    16.22442      0.5000000e-02    100.0000            kx2mul   1.0   0.0
pp2_mul173    log    factor   0.9358329      0.5000000e-02    100.0000            kx2mul   1.0   0.0
pp2_mul174    log    factor   0.3718904      0.5000000e-02    100.0000            kx2mul   1.0   0.0
pp2_mul175    log    factor   0.4241434      0.5000000e-02    100.0000            kx2mul   1.0   0.0
pp2_mul176    log    factor    2.575101      0.5000000e-02    100.0000            kx2mul   1.0   0.0
pp2_mul177    log    factor    36.89571      0.5000000e-02    100.0000            kx2mul   1.0   0.0
pp2_mul178    log    factor   6.4658555E-02  0.5000000e-02    100.0000            kx2mul   1.0   0.0
pp2_mul179    log    factor    1.240170      0.5000000e-02    100.0000            kx2mul   1.0   0.0
pp2_mul180    log    factor    2.993595      0.5000000e-02    100.0000            kx2mul   1.0   0.0
pp2_mul181    log    factor   0.7727358      0.5000000e-02    100.0000            kx2mul   1.0   0.0
pp2_mul182    log    factor   0.3438706      0.5000000e-02    100.0000            kx2mul   1.0   0.0
pp2_mul183    log    factor   0.6423451      0.5000000e-02    100.0000            kx2mul   1.0   0.0
pp2_mul184    log    factor   0.2985841      0.5000000e-02    100.0000            kx2mul   1.0   0.0
pp2_mul185    log    factor   0.4788428      0.5000000e-02    100.0000            kx2mul   1.0   0.0
pp2_mul186    log    factor    1.667187      0.5000000e-02    100.0000            kx2mul   1.0   0.0
pp2_mul187    log    factor   0.7818313      0.5000000e-02    100.0000            kx2mul   1.0   0.0
pp2_mul188    log    factor    1.172396      0.5000000e-02    100.0000            kx2mul   1.0   0.0
pp2_mul189    log    factor    3.478238      0.5000000e-02    100.0000            kx2mul   1.0   0.0
pp2_mul190    log    factor   0.2881148      0.5000000e-02    100.0000            kx2mul   1.0   0.0
pp2_mul191    log    factor   0.7556381      0.5000000e-02    100.0000            kx2mul   1.0   0.0
pp2_mul192    log    factor   5.0000000E-03  0.5000000e-02    100.0000            kx2mul   1.0   0.0
pp2_mul193    log    factor    1.336940      0.5000000e-02    100.0000            kx2mul   1.0   0.0
pp2_mul194    log    factor    3.725302      0.5000000e-02    100.0000            kx2mul   1.0   0.0
pp2_mul195    log    factor    6.431223      0.5000000e-02    100.0000            kx2mul   1.0   0.0
pp2_mul196    log    factor   0.3616829      0.5000000e-02    100.0000            kx2mul   1.0   0.0
pp2_mul197    log    factor    2.599921      0.5000000e-02    100.0000            kx2mul   1.0   0.0
pp2_mul198    log    factor   8.5167596E-03  0.5000000e-02    100.0000            kx2mul   1.0   0.0
pp2_mul199    log    factor   0.9943933      0.5000000e-02    100.0000            kx2mul   1.0   0.0
pp2_mul200    log    factor   1.3703321E-02  0.5000000e-02    100.0000            kx2mul   1.0   0.0
pp2_mul201    log    factor   0.1903404      0.5000000e-02    100.0000            kx2mul   1.0   0.0
pp2_mul202    log    factor    2.009041      0.5000000e-02    100.0000            kx2mul   1.0   0.0
pp2_mul203    log    factor    1.171531      0.5000000e-02    100.0000            kx2mul   1.0   0.0
pp2_mul204    log    factor   0.1777322      0.5000000e-02    100.0000            kx2mul   1.0   0.0
pp2_mul205    log    factor    1.447363      0.5000000e-02    100.0000            kx2mul   1.0   0.0
pp2_mul206    log    factor   0.1142618      0.5000000e-02    100.0000            kx2mul   1.0   0.0
pp2_mul207    log    factor   0.7161974      0.5000000e-02    100.0000            kx2mul   1.0   0.0
pp2_mul208    log    factor    10.51092      0.5000000e-02    100.0000            kx2mul   1.0   0.0
pp2_mul209    log    factor   0.7184366      0.5000000e-02    100.0000            kx2mul   1.0   0.0
pp2_mul210    log    factor    2.630714      0.5000000e-02    100.0000            kx2mul   1.0   0.0
pp2_mul211    log    factor    100.0000      0.5000000e-02    100.0000            kx2mul   1.0   0.0
pp2_mul212    log    factor   0.6628725      0.5000000e-02    100.0000            kx2mul   1.0   0.0
pp2_mul213    log    factor   0.5649712      0.5000000e-02    100.0000            kx2mul   1.0   0.0
pp2_mul214    log    factor   0.1565881      0.5000000e-02    100.0000            kx2mul   1.0   0.0
pp2_mul215    log    factor   0.2187086      0.5000000e-02    100.0000            kx2mul   1.0   0.0
pp2_mul216    log    factor   0.8221441      0.5000000e-02    100.0000            kx2mul   1.0   0.0
pp2_mul217    log    factor    1.392278      0.5000000e-02    100.0000            kx2mul   1.0   0.0
pp2_mul218    log    factor   0.6647375      0.5000000e-02    100.0000            kx2mul   1.0   0.0
pp2_mul219    log    factor   0.5133989      0.5000000e-02    100.0000            kx2mul   1.0   0.0
pp2_mul220    log    factor   0.1072937      0.5000000e-02    100.0000            kx2mul   1.0   0.0
pp2_mul221    log    factor    1.836287      0.5000000e-02    100.0000            kx2mul   1.0   0.0
pp2_mul222    log    factor   0.6949461      0.5000000e-02    100.0000            kx2mul   1.0   0.0
pp2_mul223    log    factor   0.8197844      0.5000000e-02    100.0000            kx2mul   1.0   0.0
pp2_mul224    log    factor   0.5229639      0.5000000e-02    100.0000            kx2mul   1.0   0.0
pp2_mul225    log    factor    1.428710      0.5000000e-02    100.0000            kx2mul   1.0   0.0
pp2_mul226    log    factor   0.2151108      0.5000000e-02    100.0000            kx2mul   1.0   0.0
pp2_mul227    log    factor   0.9284158      0.5000000e-02    100.0000            kx2mul   1.0   0.0
pp2_mul228    log    factor    1.984500      0.5000000e-02    100.0000            kx2mul   1.0   0.0
pp2_mul229    log    factor    7.181488      0.5000000e-02    100.0000            kx2mul   1.0   0.0
pp2_mul230    log    factor    1.811779      0.5000000e-02    100.0000            kx2mul   1.0   0.0
pp2_mul231    log    factor    2.749610      0.5000000e-02    100.0000            kx2mul   1.0   0.0
pp2_mul232    log    factor    5.027577      0.5000000e-02    100.0000            kx2mul   1.0   0.0
pp2_mul233    log    factor   6.3863949E-02  0.5000000e-02    100.0000            kx2mul   1.0   0.0
pp2_mul234    log    factor   0.4025804      0.5000000e-02    100.0000            kx2mul   1.0   0.0
pp2_mul235    log    factor   0.2944104      0.5000000e-02    100.0000            kx2mul   1.0   0.0
pp2_mul236    log    factor   0.8000676      0.5000000e-02    100.0000            kx2mul   1.0   0.0
pp2_mul237    log    factor    7.422808      0.5000000e-02    100.0000            kx2mul   1.0   0.0
pp2_mul238    log    factor   0.1157980      0.5000000e-02    100.0000            kx2mul   1.0   0.0
pp2_mul239    log    factor    2.955072      0.5000000e-02    100.0000            kx2mul   1.0   0.0
pp2_mul240    log    factor   9.6474631E-02  0.5000000e-02    100.0000            kx2mul   1.0   0.0
pp2_mul241    log    factor   0.3384795      0.5000000e-02    100.0000            kx2mul   1.0   0.0
pp2_mul242    log    factor   0.5542074      0.5000000e-02    100.0000            kx2mul   1.0   0.0
pp2_mul243    log    factor   0.2267286      0.5000000e-02    100.0000            kx2mul   1.0   0.0
pp2_mul244    log    factor    4.813101      0.5000000e-02    100.0000            kx2mul   1.0   0.0
pp2_mul245    log    factor   1.6819465E-02  0.5000000e-02    100.0000            kx2mul   1.0   0.0
pp2_mul246    log    factor    24.32768      0.5000000e-02    100.0000            kx2mul   1.0   0.0
pp2_mul247    log    factor    21.91921      0.5000000e-02    100.0000            kx2mul   1.0   0.0
pp2_mul248    log    factor    49.68019      0.5000000e-02    100.0000            kx2mul   1.0   0.0
pp2_mul249    log    factor   0.1112629      0.5000000e-02    100.0000            kx2mul   1.0   0.0
pp2_mul250    log    factor    1.842133      0.5000000e-02    100.0000            kx2mul   1.0   0.0
pp2_mul251    log    factor    28.52340      0.5000000e-02    100.0000            kx2mul   1.0   0.0
pp2_mul252    log    factor    2.080738      0.5000000e-02    100.0000            kx2mul   1.0   0.0
pp2_mul253    log    factor    2.749190      0.5000000e-02    100.0000            kx2mul   1.0   0.0
pp2_mul254    log    factor   0.2174018      0.5000000e-02    100.0000            kx2mul   1.0   0.0
pp2_mul255    log    factor   6.1554176E-03  0.5000000e-02    100.0000            kx2mul   1.0   0.0
pp2_mul256    log    factor   6.5373759E-03  0.5000000e-02    100.0000            kx2mul   1.0   0.0
pp2_mul257    log    factor   0.3809004      0.5000000e-02    100.0000            kx2mul   1.0   0.0