# MODFLOW-USGs River Package
 1783 50
 1783 0    Stress Period 1
 19684   2.5272830E+02       1.6850000E+01       2.5172830E+02
 20004   2.5073580E+02       9.5500000E+00       2.4973580E+02
 33796   2.3582960E+02       9.0750000E+03       2.3482960E+02
 33797   2.3576820E+02       3.7575000E+04       2.3476820E+02
 33798   2.3572530E+02       3.7500000E+04       2.3472530E+02
 33799   2.3568740E+02       3.8850000E+04       2.3468740E+02
 33800   2.3564960E+02       3.9600000E+04       2.3464960E+02
 33801   2.3561180E+02       3.7575000E+04       2.3461180E+02
 33802   2.3557930E+02       3.7500000E+04       2.3457930E+02
 33803   2.3557680E+02       3.7575000E+04       2.3457680E+02
 33804   2.3557430E+02       3.7650000E+04       2.3457430E+02
 33805   2.3557190E+02       4.1250000E+04       2.3457190E+02
 33806   2.3556960E+02       1.4250000E+04       2.3456960E+02
 34115   2.3584210E+02       3.7275000E+04       2.3484210E+02
 34116   2.3579770E+02       3.1800000E+04       2.3479770E+02
 34126   2.3556880E+02       2.7300000E+04       2.3456880E+02
 34127   2.3556650E+02       4.2150000E+04       2.3456650E+02
 34128   2.3960680E+02       2.3300000E+01       2.3860680E+02
 34434   2.3687160E+02       4.3050000E+04       2.3587160E+02
 34435   2.4037970E+02       1.1625000E+04       2.3937970E+02
 34448   2.3551920E+02       2.8125000E+04       2.3451920E+02
 34753   2.3609120E+02       4.1025000E+04       2.3509120E+02
 34754   2.3965030E+02       9.0000000E+03       2.3865030E+02
 35072   2.3606930E+02       1.4625000E+04       2.3506930E+02
 35073   2.3600050E+02       2.8500000E+04       2.3500050E+02
 35391   2.3822940E+02       1.2225000E+04       2.3722940E+02
 35392   2.3774450E+02       4.0800000E+04       2.3674450E+02
 35710   2.4005410E+02       1.2225000E+04       2.3905410E+02
 35711   2.3889320E+02       4.0800000E+04       2.3789320E+02
 36030   2.4034580E+02       2.4825000E+04       2.3934580E+02
 21613   2.4235660E+02       2.5500000E+00       2.4135660E+02
 39799   2.5052820E+02       3.7000000E+01       2.4952820E+02
 40119   2.5533770E+02       5.9500000E+00       2.5433770E+02
 14953   2.5446150E+02       9.5500000E+00       2.5346150E+02
 15270   2.5292550E+02       7.7000000E+00       2.5192550E+02
 15271   2.5371320E+02       2.6600000E+01       2.5271320E+02
 15272   2.5422400E+02       2.6650000E+01       2.5322400E+02
 15273   2.5389110E+02       6.3000000E+00       2.5289110E+02
 49271   2.3120540E+02       9.9000000E+03       2.3020540E+02
 49591   2.3120460E+02       1.0200000E+01       2.3020460E+02
 577     2.7513170E+02       7.7000000E+00       2.7413170E+02
 40114   2.5196490E+02       1.0080000E+02       2.5096490E+02
 40116   2.5271030E+02       9.4000000E+01       2.5171030E+02
 40117   2.5551780E+02       1.0020000E+02       2.5451780E+02
 40118   2.5609660E+02       1.0180000E+02       2.5509660E+02
 40119   2.5533770E+02       5.9500000E+00       2.5433770E+02
 40433   2.5255340E+02       2.7200000E+01       2.5155340E+02
 40434   2.5250050E+02       1.3800000E+02       2.5150050E+02
 40435   2.5236770E+02       1.3220000E+02       2.5136770E+02
 40436   2.5211920E+02       4.0400000E+01       2.5111920E+02
 40752   2.5249780E+02       1.0740000E+02       2.5149780E+02
 40753   2.5257600E+02       7.7000000E+01       2.5157600E+02
 41071   2.5234910E+02       1.0600000E+01       2.5134910E+02
 41072   2.5299320E+02       9.7000000E+01       2.5199320E+02
 41391   2.5258790E+02       1.4280000E+02       2.5158790E+02
 41708   2.5286670E+02       5.9000000E+01       2.5186670E+02
 41709   2.5272730E+02       1.0640000E+02       2.5172730E+02
 41710   2.5279790E+02       1.0020000E+02       2.5179790E+02
 42026   2.5337330E+02       1.6200000E+01       2.5237330E+02
 42027   2.5289610E+02       1.1720000E+02       2.5189610E+02
 42028   2.5347000E+02       5.7800000E+01       2.5247000E+02
 42345   2.5336330E+02       9.0000000E+01       2.5236330E+02
 42346   2.5326620E+02       1.0120000E+02       2.5226620E+02
 42663   2.5354300E+02       4.6600000E+01       2.5254300E+02
 42664   2.5341420E+02       1.1720000E+02       2.5241420E+02
 42665   2.5325540E+02       2.7400000E+01       2.5225540E+02
 42981   2.5360460E+02       9.3400000E+01       2.5260460E+02
 42982   2.5352660E+02       1.0280000E+02       2.5252660E+02
 42983   2.5345340E+02       6.6200000E+01       2.5245340E+02
 43253   2.6238880E+02       1.0200000E+01       2.6138880E+02
 43254   2.6271910E+02       1.0340000E+02       2.6171910E+02
 43255   2.6285240E+02       4.1800000E+01       2.6185240E+02
 43299   2.5384710E+02       2.7400000E+01       2.5284710E+02
 43300   2.5354410E+02       1.2160000E+02       2.5254410E+02
 43301   2.5370710E+02       2.6800000E+01       2.5270710E+02
 43572   2.6234640E+02       4.4600000E+01       2.6134640E+02
 43573   2.6165090E+02       1.1700000E+02       2.6065090E+02
 43575   2.6130630E+02       6.2600000E+01       2.6030630E+02
 43576   2.6570650E+02       1.0500000E+02       2.6470650E+02
 43577   2.6467490E+02       1.0100000E+02       2.6367490E+02
 43578   2.6248490E+02       1.0060000E+02       2.6148490E+02
 43579   2.6185810E+02       1.0800000E+02       2.6085810E+02
 43580   2.6190300E+02       1.5800000E+01       2.6090300E+02
 43618   2.5411670E+02       8.6000000E+01       2.5311670E+02
 43619   2.5385160E+02       9.3400000E+01       2.5285160E+02
 43891   2.6297450E+02       7.9200000E+01       2.6197450E+02
 43892   2.6238630E+02       8.2600000E+01       2.6138630E+02
 43900   2.6172230E+02       1.2480000E+02       2.6072230E+02
 43901   2.6101250E+02       1.3600000E+01       2.6001250E+02
 43937   2.5372630E+02       1.2760000E+02       2.5272630E+02
 43938   2.5362280E+02       3.4000000E+01       2.5262280E+02
 44210   2.6342810E+02       7.7600000E+01       2.6242810E+02
 44211   2.6330880E+02       5.2000000E+01       2.6230880E+02
 44221   2.6085740E+02       1.0600000E+02       2.5985740E+02
 44222   2.6121310E+02       1.0380000E+02       2.6021310E+02
 44223   2.6098210E+02       5.9200000E+01       2.5998210E+02
 44256   2.5402300E+02       1.2600000E+02       2.5302300E+02
 44529   2.6321210E+02       5.7600000E+01       2.6221210E+02
 44530   2.6368680E+02       8.3400000E+01       2.6268680E+02
 44543   2.6051190E+02       1.1140000E+02       2.5951190E+02
 44575   2.5410770E+02       8.6800000E+01       2.5310770E+02
 44576   2.5392970E+02       3.6000000E+01       2.5292970E+02
 44848   2.6937420E+02       5.6800000E+01       2.6837420E+02
 44849   2.6406570E+02       8.4200000E+01       2.6306570E+02
 44863   2.5950370E+02       1.0000000E+02       2.5850370E+02
 44894   2.5419690E+02       4.3400000E+01       2.5319690E+02
 44895   2.5400690E+02       8.4200000E+01       2.5300690E+02
 45167   2.6864470E+02       9.1800000E+01       2.6764470E+02
 45168   2.7138270E+02       7.8600000E+01       2.7038270E+02
 45183   2.5941500E+02       3.1800000E+01       2.5841500E+02
 45184   2.6111860E+02       7.5200000E+01       2.6011860E+02
 45213   2.5442790E+02       3.1000000E+01       2.5342790E+02
 45214   2.5438490E+02       1.0460000E+02       2.5338490E+02
 45485   2.6779590E+02       1.0960000E+02       2.6679590E+02
 45486   2.6893000E+02       1.0940000E+02       2.6793000E+02
 45487   2.6633450E+02       2.5200000E+01       2.6533450E+02
 45504   2.6077680E+02       1.2200000E+02       2.5977680E+02
 45532   2.5506880E+02       3.8800000E+01       2.5406880E+02
 45533   2.5409780E+02       1.0940000E+02       2.5309780E+02
 45803   2.6712690E+02       7.5600000E+01       2.6612690E+02
 45804   2.6721810E+02       1.1640000E+02       2.6621810E+02
 45825   2.6031640E+02       1.2360000E+02       2.5931640E+02
 45851   2.5808590E+02       9.7200000E+01       2.5708590E+02
 45852   2.5417210E+02       8.4800000E+01       2.5317210E+02
 46122   2.6783980E+02       1.1360000E+02       2.6683980E+02
 46123   2.6739160E+02       4.2400000E+01       2.6639160E+02
 46145   2.5987460E+02       4.5000000E+01       2.5887460E+02
 46146   2.5906380E+02       8.9800000E+01       2.5806380E+02
 46169   2.5592600E+02       1.0200000E+01       2.5492600E+02
 46170   2.5574020E+02       1.2940000E+02       2.5474020E+02
 46171   2.5589100E+02       2.1200000E+01       2.5489100E+02
 46441   2.6985160E+02       9.2000000E+01       2.6885160E+02
 46442   2.6968800E+02       3.2000000E+01       2.6868800E+02
 46466   2.5942320E+02       5.0400000E+01       2.5842320E+02
 46467   2.5891260E+02       1.1660000E+02       2.5791260E+02
 46468   2.5917450E+02       1.2800000E+01       2.5817450E+02
 46488   2.5658040E+02       3.8400000E+01       2.5558040E+02
 46489   2.5593080E+02       1.1920000E+02       2.5493080E+02
 46760   2.7977670E+02       1.0800000E+01       2.7877670E+02
 46761   2.7522570E+02       1.0100000E+02       2.7422570E+02
 46788   2.5801670E+02       1.0100000E+02       2.5701670E+02
 46789   2.5892360E+02       7.1400000E+01       2.5792360E+02
 46792   2.5802000E+02       7.8600000E+01       2.5702000E+02
 46793   2.5786300E+02       1.0100000E+02       2.5686300E+02
 46794   2.5712550E+02       1.0000000E+02       2.5612550E+02
 46795   2.5846750E+02       1.0020000E+02       2.5746750E+02
 46796   2.5711420E+02       6.9600000E+01       2.5611420E+02
 46807   2.5634910E+02       6.6600000E+01       2.5534910E+02
 46808   2.5586090E+02       9.1000000E+01       2.5486090E+02
 47080   2.7676840E+02       1.0500000E+02       2.7576840E+02
 47109   2.5810240E+02       6.5200000E+01       2.5710240E+02
 47110   2.5686920E+02       1.0400000E+02       2.5586920E+02
 47111   2.5714080E+02       1.0660000E+02       2.5614080E+02
 47112   2.5784170E+02       2.2800000E+01       2.5684170E+02
 47116   2.5695280E+02       3.6200000E+01       2.5595280E+02
 47117   2.5778040E+02       1.3280000E+02       2.5678040E+02
 47126   2.5597180E+02       9.4600000E+01       2.5497180E+02
 47127   2.5578600E+02       6.2800000E+01       2.5478600E+02
 47438   2.5824230E+02       1.3360000E+02       2.5724230E+02
 47445   2.5588730E+02       1.2280000E+02       2.5488730E+02
 47446   2.5588330E+02       3.4800000E+01       2.5488330E+02
 47759   2.5714800E+02       1.2740000E+02       2.5614800E+02
 47760   2.5723230E+02       2.7000000E+01       2.5623230E+02
 47763   2.5618770E+02       6.7000000E+01       2.5518770E+02
 47764   2.5590790E+02       1.2000000E+02       2.5490790E+02
 48080   2.5687070E+02       8.5000000E+01       2.5587070E+02
 48081   2.5651750E+02       1.0180000E+02       2.5551750E+02
 48082   2.5672760E+02       1.0460000E+02       2.5572760E+02
 48083   2.5588770E+02       4.3800000E+01       2.5488770E+02
 40119   2.5533770E+02       5.9500000E+00       2.5433770E+02
 40439   2.5193500E+02       1.6550000E+01       2.5093500E+02
 40254   2.3313170E+02       6.8500000E+00       2.3213170E+02
 40255   2.3291470E+02       2.3700000E+04       2.3191470E+02
 9357    2.4990080E+02       9.9000000E+01       2.4890080E+02
 6482    2.5484550E+02       1.1400000E+01       2.5384550E+02
 6483    2.5487010E+02       2.8250000E+01       2.5387010E+02
 6484    2.5525380E+02       1.2550000E+01       2.5425380E+02
 6801    2.5495470E+02       2.6400000E+01       2.5395470E+02
 6802    2.5667060E+02       1.8650000E+01       2.5567060E+02
 7119    2.5462710E+02       1.1400000E+01       2.5362710E+02
 7120    2.5311670E+02       3.0050000E+01       2.5211670E+02
 7121    2.5408600E+02       3.6500000E+00       2.5308600E+02
 7438    2.5275470E+02       2.6200000E+01       2.5175470E+02
 7439    2.5235270E+02       1.8650000E+01       2.5135270E+02
 7757    2.5247120E+02       2.4650000E+01       2.5147120E+02
 7758    2.5587890E+02       4.6000000E+00       2.5487890E+02
 8077    2.5245990E+02       2.5700000E+01       2.5145990E+02
 8397    2.5155560E+02       2.5550000E+01       2.5055560E+02
 8717    2.5052800E+02       3.6500000E+00       2.4952800E+02
 8718    2.5371900E+02       8.4500000E+00       2.5271900E+02
 8718    2.5371900E+02       8.4500000E+00       2.5271900E+02
 9037    2.5175550E+02       1.6700000E+01       2.5075550E+02
 9038    2.5099710E+02       9.0500000E+00       2.4999710E+02
 9357    2.4990080E+02       9.9000000E+01       2.4890080E+02
 14286   2.5068030E+02       2.5400000E+01       2.4968030E+02
 14287   2.5077600E+02       1.0260000E+02       2.4977600E+02
 14288   2.5076450E+02       1.3200000E+01       2.4976450E+02
 14600   2.4948580E+02       6.3400000E+01       2.4848580E+02
 14601   2.4939630E+02       1.0140000E+02       2.4839630E+02
 14602   2.5329590E+02       1.0160000E+02       2.5229590E+02
 14603   2.5333330E+02       1.0140000E+02       2.5233330E+02
 14604   2.4975270E+02       1.0120000E+02       2.4875270E+02
 14605   2.5012390E+02       1.0080000E+02       2.4912390E+02
 14606   2.5024020E+02       7.5400000E+01       2.4924020E+02
 14912   2.5288140E+02       1.0480000E+02       2.5188140E+02
 14913   2.5469600E+02       1.0000000E+02       2.5369600E+02
 14914   2.4839070E+02       1.0000000E+02       2.4739070E+02
 14915   2.4891800E+02       1.0000000E+02       2.4791800E+02
 14916   2.4935410E+02       1.0040000E+02       2.4835410E+02
 14917   2.4927170E+02       1.0160000E+02       2.4827170E+02
 14918   2.4958750E+02       1.0140000E+02       2.4858750E+02
 14919   2.4963890E+02       1.0140000E+02       2.4863890E+02
 14920   2.4971710E+02       3.8000000E+01       2.4871710E+02
 15231   2.4819090E+02       1.0040000E+02       2.4719090E+02
 15232   2.4836330E+02       1.1400000E+01       2.4736330E+02
 15551   2.4867340E+02       1.0880000E+02       2.4767340E+02
 15868   2.4790570E+02       5.1600000E+01       2.4690570E+02
 15869   2.4798110E+02       1.0160000E+02       2.4698110E+02
 15870   2.4826910E+02       1.0540000E+02       2.4726910E+02
 15871   2.4818040E+02       3.5600000E+01       2.4718040E+02
 16187   2.4757140E+02       7.9600000E+01       2.4657140E+02
 16188   2.4805870E+02       6.7600000E+01       2.4705870E+02
 16507   2.4740750E+02       1.0120000E+02       2.4640750E+02
 16826   2.4705240E+02       8.9800000E+01       2.4605240E+02
 16827   2.4658530E+02       7.1400000E+01       2.4558530E+02
 17146   2.4650630E+02       1.2800000E+01       2.4550630E+02
 3292    2.6302580E+02       2.5000000E+01       2.6202580E+02
 24404   2.4956610E+02       9.6000000E+03       2.4856610E+02
 24724   2.4961940E+02       3.9450000E+04       2.4861940E+02
 25043   2.4985350E+02       1.4775000E+04       2.4885350E+02
 25044   2.5383000E+02       3.0900000E+04       2.5283000E+02
 25361   2.5394180E+02       1.0200000E+04       2.5294180E+02
 25362   2.5003880E+02       3.9900000E+04       2.4903880E+02
 25363   2.5036040E+02       3.5400000E+04       2.4936040E+02
 25678   2.5061080E+02       6.3000000E+03       2.4961080E+02
 25679   2.5046940E+02       3.7500000E+04       2.4946940E+02
 25680   2.5032860E+02       3.7500000E+04       2.4932860E+02
 25681   2.5019830E+02       2.8500000E+04       2.4919830E+02
 22894   2.4181190E+02       1.1250000E+04       2.4081190E+02
 23212   2.3989090E+02       3.7050000E+04       2.3889090E+02
 23213   2.3982160E+02       4.1775000E+04       2.3882160E+02
 23214   2.3977140E+02       1.1025000E+04       2.3877140E+02
 23530   2.4144950E+02       3.8550000E+04       2.4044950E+02
 23531   2.3996040E+02       4.1775000E+04       2.3896040E+02
 23532   2.3988840E+02       4.7250000E+03       2.3888840E+02
 23848   2.4309510E+02       4.0125000E+04       2.4209510E+02
 23849   2.4009210E+02       4.1775000E+04       2.3909210E+02
 24140   2.4218730E+02       1.5975000E+04       2.4118730E+02
 24141   2.4210960E+02       3.7800000E+04       2.4110960E+02
 24142   2.4667790E+02       1.1550000E+04       2.4567790E+02
 24164   2.4559890E+02       1.9275000E+04       2.4459890E+02
 24165   2.4463200E+02       3.8925000E+04       2.4363200E+02
 24166   2.4031380E+02       3.9000000E+04       2.3931380E+02
 24167   2.4021600E+02       3.8925000E+04       2.3921600E+02
 24462   2.4205990E+02       2.6250000E+04       2.4105990E+02
 24463   2.4292550E+02       4.9500000E+04       2.4192550E+02
 24469   2.4148540E+02       2.4750000E+04       2.4048540E+02
 24470   2.4204650E+02       3.7500000E+04       2.4104650E+02
 24471   2.4245240E+02       3.7575000E+04       2.4145240E+02
 24472   2.4417560E+02       3.7500000E+04       2.4317560E+02
 24473   2.4784440E+02       9.8250000E+03       2.4684440E+02
 24481   2.4571300E+02       3.8925000E+04       2.4471300E+02
 24482   2.4507250E+02       3.8925000E+04       2.4407250E+02
 24483   2.4144260E+02       3.8925000E+04       2.4044260E+02
 24484   2.4040320E+02       1.9650000E+04       2.3940320E+02
 24783   2.4192830E+02       5.0250000E+03       2.4092830E+02
 24784   2.4596860E+02       5.1225000E+04       2.4496860E+02
 24785   2.4612320E+02       3.7575000E+04       2.4512320E+02
 24786   2.4268900E+02       3.7575000E+04       2.4168900E+02
 24787   2.4399220E+02       3.7575000E+04       2.4299220E+02
 24788   2.4275990E+02       4.2150000E+04       2.4175990E+02
 24789   2.4301220E+02       1.8975000E+04       2.4201220E+02
 24793   2.4114310E+02       2.7750000E+04       2.4014310E+02
 24794   2.4101890E+02       3.7500000E+04       2.4001890E+02
 24795   2.4093280E+02       3.7575000E+04       2.3993280E+02
 24796   2.4208040E+02       3.7500000E+04       2.4108040E+02
 24797   2.4372790E+02       3.7575000E+04       2.4272790E+02
 24798   2.4289380E+02       3.7500000E+04       2.4189380E+02
 24799   2.4108200E+02       3.7800000E+04       2.4008200E+02
 24800   2.4064280E+02       3.6000000E+04       2.3964280E+02
 10965   2.5094410E+02       2.8200000E+01       2.4994410E+02
 10966   2.5147220E+02       1.0760000E+02       2.5047220E+02
 10967   2.5130470E+02       1.1660000E+02       2.5030470E+02
 10968   2.5117170E+02       8.8600000E+01       2.5017170E+02
 11288   2.5073070E+02       1.0080000E+02       2.4973070E+02
 11608   2.5034640E+02       1.0040000E+02       2.4934640E+02
 11928   2.5026100E+02       1.0040000E+02       2.4926100E+02
 12248   2.5080590E+02       1.0220000E+02       2.4980590E+02
 12568   2.4963440E+02       1.0020000E+02       2.4863440E+02
 12888   2.4925930E+02       1.0920000E+02       2.4825930E+02
 13207   2.4949830E+02       1.0980000E+02       2.4849830E+02
 13208   2.5031130E+02       2.2000000E+01       2.4931130E+02
 13526   2.5033640E+02       8.3400000E+01       2.4933640E+02
 13527   2.4982210E+02       4.2000000E+01       2.4882210E+02
 13846   2.5023290E+02       1.0880000E+02       2.4923290E+02
 14165   2.4925810E+02       6.1000000E+01       2.4825810E+02
 14166   2.4954970E+02       4.1400000E+01       2.4854970E+02
 14486   2.5050990E+02       1.2260000E+02       2.4950990E+02
 14806   2.4895250E+02       3.5200000E+01       2.4795250E+02
 14807   2.5037630E+02       1.2500000E+02       2.4937630E+02
 15127   2.5103620E+02       1.0340000E+02       2.5003620E+02
 15447   2.5023540E+02       1.1040000E+02       2.4923540E+02
 15766   2.4908140E+02       7.4200000E+01       2.4808140E+02
 15767   2.4889580E+02       4.3000000E+01       2.4789580E+02
 16086   2.4968180E+02       1.0800000E+02       2.4868180E+02
 16406   2.4970580E+02       1.0020000E+02       2.4870580E+02
 16407   2.4980590E+02       1.0080000E+02       2.4880590E+02
 16408   2.4900980E+02       1.0140000E+02       2.4800980E+02
 16409   2.4925140E+02       1.4220000E+02       2.4825140E+02
 16729   2.4978030E+02       2.2400000E+01       2.4878030E+02
 16730   2.4982640E+02       7.8200000E+01       2.4882640E+02
 17050   2.4918110E+02       1.1560000E+02       2.4818110E+02
 17370   2.4875810E+02       6.3000000E+01       2.4775810E+02
 17371   2.4928670E+02       9.3800000E+01       2.4828670E+02
 17372   2.4844330E+02       1.1520000E+02       2.4744330E+02
 17373   2.4871130E+02       8.1600000E+01       2.4771130E+02
 22024   2.5018600E+02       1.9750000E+01       2.4918600E+02
 22025   2.5017550E+02       2.5200000E+01       2.4917550E+02
 22026   2.5080610E+02       2.5150000E+01       2.4980610E+02
 22340   2.5231910E+02       2.5000000E+01       2.5131910E+02
 22341   2.5023850E+02       2.5350000E+01       2.4923850E+02
 22342   2.5022310E+02       2.5200000E+01       2.4922310E+02
 22343   2.5022180E+02       2.5150000E+01       2.4922180E+02
 22344   2.5024730E+02       5.4000000E+00       2.4924730E+02
 22659   2.5638370E+02       2.6400000E+01       2.5538370E+02
 22660   2.5075060E+02       6.7500000E+00       2.4975060E+02
 22978   2.5564880E+02       1.4850000E+01       2.5464880E+02
 22979   2.5071800E+02       1.4800000E+01       2.4971800E+02
 23298   2.5104740E+02       2.8450000E+01       2.5004740E+02
 23617   2.5264430E+02       1.6500000E+01       2.5164430E+02
 23618   2.5429000E+02       1.0600000E+01       2.5329000E+02
 23937   2.4988300E+02       2.6700000E+01       2.4888300E+02
 24256   2.4987510E+02       2.1650000E+01       2.4887510E+02
 24257   2.5515650E+02       1.5550000E+01       2.5415650E+02
 24575   2.5135600E+02       3.1850000E+01       2.5035600E+02
 24576   2.5205820E+02       9.2500000E+00       2.5105820E+02
 24894   2.4881950E+02       3.0650000E+01       2.4781950E+02
 25214   2.4945120E+02       2.5950000E+01       2.4845120E+02
 25534   2.4883750E+02       2.7150000E+01       2.4783750E+02
 25854   2.4822080E+02       1.7950000E+01       2.4722080E+02
 25855   2.4905330E+02       9.1500000E+00       2.4805330E+02
 26175   2.4938240E+02       2.6750000E+01       2.4838240E+02
 26495   2.4887350E+02       2.6000000E+01       2.4787350E+02
 26815   2.4657640E+02       1.2800000E+01       2.4557640E+02
 26816   2.4832430E+02       1.5750000E+01       2.4732430E+02
 27136   2.4836910E+02       2.9000000E+01       2.4736910E+02
 27456   2.4562080E+02       5.5000000E+00       2.4462080E+02
 27457   2.4804550E+02       2.1200000E+01       2.4704550E+02
 27777   2.4660800E+02       2.6000000E+01       2.4560800E+02
 28097   2.4483760E+02       2.6050000E+01       2.4383760E+02
 28417   2.4461060E+02       1.1300000E+01       2.4361060E+02
 28418   2.4509000E+02       1.4700000E+01       2.4409000E+02
 28738   2.4413990E+02       2.6050000E+01       2.4313990E+02
 29058   2.4482560E+02       2.6000000E+01       2.4382560E+02
 29378   2.4260140E+02       2.5650000E+01       2.4160140E+02
 29698   2.4261250E+02       2.8350000E+01       2.4161250E+02
 30017   2.4237060E+02       2.4650000E+01       2.4137060E+02
 30018   2.4326290E+02       1.5650000E+01       2.4226290E+02
 30336   2.4578750E+02       2.2350000E+01       2.4478750E+02
 30337   2.4192580E+02       6.0000000E+00       2.4092580E+02
 30656   2.4190850E+02       2.6000000E+01       2.4090850E+02
 30975   2.4133530E+02       7.7500000E+00       2.4033530E+02
 30976   2.4314020E+02       2.3150000E+01       2.4214020E+02
 31295   2.4115500E+02       2.4000000E+01       2.4015500E+02
 26451   2.4235690E+02       9.5500000E+00       2.4135690E+02
 26452   2.4183410E+02       2.0350000E+01       2.4083410E+02
 26769   2.4123360E+02       5.7500000E+00       2.4023360E+02
 26770   2.4111220E+02       2.5000000E+01       2.4011220E+02
 26771   2.4123210E+02       1.8900000E+01       2.4023210E+02
 51832   2.4567900E+02       1.0580000E+02       2.4467900E+02
 52153   2.5032890E+02       1.3920000E+02       2.4932890E+02
 52474   2.5032890E+02       1.2100000E+02       2.4932890E+02
 52794   2.5032890E+02       1.0160000E+02       2.4932890E+02
 53114   2.5032890E+02       1.0140000E+02       2.4932890E+02
 53434   2.5032890E+02       1.0040000E+02       2.4932890E+02
 53754   2.5032890E+02       1.0020000E+02       2.4932890E+02
 54074   2.5032890E+02       1.0920000E+02       2.4932890E+02
 54393   2.5032890E+02       1.9200000E+01       2.4932890E+02
 54394   2.5032890E+02       1.0000000E+02       2.4932890E+02
 54713   2.5032890E+02       1.1080000E+02       2.4932890E+02
 55033   2.5032890E+02       1.0100000E+02       2.4932890E+02
 55353   2.5032890E+02       1.0100000E+02       2.4932890E+02
 55673   2.5032890E+02       1.2760000E+02       2.4932890E+02
 40255   2.3291470E+02       2.3700000E+04       2.3191470E+02
 40256   2.3289920E+02       3.7500000E+04       2.3189920E+02
 40257   2.3288720E+02       4.1925000E+04       2.3188720E+02
 40578   2.3287570E+02       4.1550000E+04       2.3187570E+02
 40579   2.3286150E+02       2.7150000E+04       2.3186150E+02
 40899   2.3286310E+02       1.7625000E+04       2.3186310E+02
 40900   2.3285020E+02       4.0875000E+04       2.3185020E+02
 40901   2.3283860E+02       3.2700000E+04       2.3183860E+02
 41221   2.3283900E+02       7.5000000E+03       2.3183900E+02
 41222   2.3282800E+02       4.0275000E+04       2.3182800E+02
 41223   2.3281760E+02       4.0275000E+04       2.3181760E+02
 41224   2.3280750E+02       1.5225000E+04       2.3180750E+02
 41544   2.3280520E+02       2.4975000E+04       2.3180520E+02
 41545   2.3279500E+02       4.0275000E+04       2.3179500E+02
 41546   2.3278510E+02       3.8025000E+04       2.3178510E+02
 41867   2.3276410E+02       4.0275000E+04       2.3176410E+02
 41868   2.3274570E+02       4.0275000E+04       2.3174570E+02
 41869   2.3273380E+02       2.3925000E+04       2.3173380E+02
 42189   2.3273190E+02       1.5150000E+04       2.3173190E+02
 42190   2.3272600E+02       3.8475000E+04       2.3172600E+02
 42191   2.3272040E+02       3.8475000E+04       2.3172040E+02
 42192   2.3271490E+02       3.8475000E+04       2.3171490E+02
 42193   2.3417590E+02       3.8100000E+04       2.3317590E+02
 42194   2.3357910E+02       3.7575000E+04       2.3257910E+02
 42195   2.3269630E+02       3.7650000E+04       2.3169630E+02
 42196   2.3268940E+02       4.0125000E+04       2.3168940E+02
 42197   2.3471700E+02       7.5750000E+03       2.3371700E+02
 42517   2.3268100E+02       4.6125000E+04       2.3168100E+02
 42518   2.3319420E+02       5.3250000E+03       2.3219420E+02
 42838   2.3267250E+02       4.6800000E+04       2.3167250E+02
 43158   2.3266970E+02       1.0725000E+04       2.3166970E+02
 43159   2.3266320E+02       3.6000000E+04       2.3166320E+02
 43479   2.3266010E+02       2.6775000E+04       2.3166010E+02
 43480   2.3620270E+02       1.9950000E+04       2.3520270E+02
 43800   2.3265060E+02       4.2900000E+04       2.3165060E+02
 43801   2.4133100E+02       3.9000000E+03       2.4033100E+02
 44121   2.3264170E+02       4.3050000E+04       2.3164170E+02
 44441   2.3263790E+02       4.0200000E+04       2.3163790E+02
 44762   2.3262870E+02       4.0350000E+04       2.3162870E+02
 44776   2.3190320E+02       3.4425000E+04       2.3090320E+02
 44777   2.3185510E+02       3.8175000E+04       2.3085510E+02
 44778   2.3182240E+02       3.8100000E+04       2.3082240E+02
 44779   2.3180190E+02       3.9975000E+04       2.3080190E+02
 44780   2.3178390E+02       4.5225000E+04       2.3078390E+02
 45082   2.3262390E+02       4.0275000E+04       2.3162390E+02
 45095   2.3193860E+02       4.2000000E+04       2.3093860E+02
 45096   2.3188360E+02       1.1100000E+04       2.3088360E+02
 45101   2.3173690E+02       4.2600000E+04       2.3073690E+02
 45102   2.3171050E+02       2.4450000E+04       2.3071050E+02
 45402   2.3261920E+02       2.1450000E+04       2.3161920E+02
 45403   2.3261520E+02       1.8900000E+04       2.3161520E+02
 45414   2.3199250E+02       3.2550000E+04       2.3099250E+02
 45415   2.3192750E+02       1.1025000E+04       2.3092750E+02
 45422   2.3168690E+02       2.0775000E+04       2.3068690E+02
 45423   2.3166240E+02       4.5300000E+04       2.3066240E+02
 45723   2.3261040E+02       4.0275000E+04       2.3161040E+02
 45734   2.3198790E+02       4.0200000E+04       2.3098790E+02
 45744   2.3161800E+02       5.0700000E+04       2.3061800E+02
 45745   2.3159250E+02       3.8250000E+03       2.3059250E+02
 46043   2.3260530E+02       4.0350000E+04       2.3160530E+02
 46053   2.3206520E+02       1.2375000E+04       2.3106520E+02
 46054   2.3198920E+02       2.7825000E+04       2.3098920E+02
 46065   2.3157390E+02       4.9200000E+04       2.3057390E+02
 46066   2.3154770E+02       3.8250000E+03       2.3054770E+02
 46364   2.3259660E+02       3.7650000E+04       2.3159660E+02
 46373   2.3207100E+02       4.0275000E+04       2.3107100E+02
 46386   2.3153030E+02       4.9200000E+04       2.3053030E+02
 46387   2.3150260E+02       3.8250000E+03       2.3050260E+02
 46684   2.3258740E+02       4.0350000E+04       2.3158740E+02
 46693   2.3207970E+02       4.0200000E+04       2.3107970E+02
 46707   2.3148560E+02       4.5900000E+04       2.3048560E+02
 47004   2.3292630E+02       2.3400000E+04       2.3192630E+02
 47005   2.3258080E+02       1.8900000E+04       2.3158080E+02
 47012   2.3217560E+02       2.9400000E+04       2.3117560E+02
 47013   2.3208750E+02       1.0800000E+04       2.3108750E+02
 47027   2.3146790E+02       1.5225000E+04       2.3046790E+02
 47028   2.3143650E+02       2.9850000E+04       2.3043650E+02
 47325   2.3256360E+02       4.4700000E+04       2.3156360E+02
 47332   2.3219350E+02       4.0275000E+04       2.3119350E+02
 47348   2.3141550E+02       4.0875000E+04       2.3041550E+02
 47645   2.3616990E+02       5.2500000E+03       2.3516990E+02
 47646   2.3252520E+02       3.9450000E+04       2.3152520E+02
 47651   2.3241530E+02       6.1500000E+03       2.3141530E+02
 47652   2.3221090E+02       3.4050000E+04       2.3121090E+02
 47668   2.3139510E+02       1.7400000E+04       2.3039510E+02
 47669   2.3135790E+02       2.2050000E+04       2.3035790E+02
 47966   2.3250590E+02       2.9325000E+04       2.3150590E+02
 47967   2.3248420E+02       1.5450000E+04       2.3148420E+02
 47971   2.3230060E+02       4.7025000E+04       2.3130060E+02
 47989   2.3133350E+02       3.9375000E+04       2.3033350E+02
 48287   2.3245410E+02       4.4700000E+04       2.3145410E+02
 48290   2.3235550E+02       3.8550000E+04       2.3135550E+02