pcf
* control data
restart estimation
    82         2193         1         0         6
    1  6    single  point
 10.0  -3.0  0.3  0.03  10  lamforgive
 10.0  10.0  0.001
 0.1
 0  0.005  4  4  0.005  4
 0  0  0
* singular value decomposition
1
  5000  5e-7
0
* parameter groups
ghbcond       relative   0.015   0.0  switch  2  parabolic
* parameter data
ghbcond1pp01  log    factor      1.000000       1.0000000E-04    10000.00           ghbcond   1.0   0.0
ghbcond3pp01  log    factor      1.000000       1.0000000E-04    10000.00           ghbcond   1.0   0.0
ghbcond1pp02  log    factor      1.000000       1.0000000E-04    10000.00           ghbcond   1.0   0.0
ghbcond3pp02  log    factor      1.000000       1.0000000E-04    10000.00           ghbcond   1.0   0.0
ghbcond1pp03  log    factor      1.000000       1.0000000E-04    10000.00           ghbcond   1.0   0.0
ghbcond3pp03  log    factor      1.000000       1.0000000E-04    10000.00           ghbcond   1.0   0.0
ghbcond1pp04  log    factor      1.000000       1.0000000E-04    10000.00           ghbcond   1.0   0.0
ghbcond3pp04  log    factor      1.000000       1.0000000E-04    10000.00           ghbcond   1.0   0.0
ghbcond1pp05  log    factor      1.000000       1.0000000E-04    10000.00           ghbcond   1.0   0.0
ghbcond3pp05  log    factor      1.000000       1.0000000E-04    10000.00           ghbcond   1.0   0.0
ghbcond1pp06  log    factor      1.000000       1.0000000E-04    10000.00           ghbcond   1.0   0.0
ghbcond3pp06  log    factor      1.000000       1.0000000E-04    10000.00           ghbcond   1.0   0.0
ghbcond1pp07  log    factor      1.000000       1.0000000E-04    10000.00           ghbcond   1.0   0.0
ghbcond3pp07  log    factor      1.000000       1.0000000E-04    10000.00           ghbcond   1.0   0.0
ghbcond1pp08  log    factor      1.000000       1.0000000E-04    10000.00           ghbcond   1.0   0.0
ghbcond3pp08  log    factor      1.000000       1.0000000E-04    10000.00           ghbcond   1.0   0.0
ghbcond1pp09  log    factor      1.000000       1.0000000E-04    10000.00           ghbcond   1.0   0.0
ghbcond3pp09  log    factor      1.000000       1.0000000E-04    10000.00           ghbcond   1.0   0.0
ghbcond1pp10  log    factor      1.000000       1.0000000E-04    10000.00           ghbcond   1.0   0.0
ghbcond3pp10  log    factor      1.000000       1.0000000E-04    10000.00           ghbcond   1.0   0.0
ghbcond1pp11  log    factor      1.000000       1.0000000E-04    10000.00           ghbcond   1.0   0.0
ghbcond3pp11  log    factor      1.000000       1.0000000E-04    10000.00           ghbcond   1.0   0.0
ghbcond1pp12  log    factor      1.000000       1.0000000E-04    10000.00           ghbcond   1.0   0.0
ghbcond3pp12  log    factor      1.000000       1.0000000E-04    10000.00           ghbcond   1.0   0.0
ghbcond1pp13  log    factor      1.000000       1.0000000E-04    10000.00           ghbcond   1.0   0.0
ghbcond3pp13  log    factor      1.000000       1.0000000E-04    10000.00           ghbcond   1.0   0.0
ghbcond1pp14  log    factor      1.000000       1.0000000E-04    10000.00           ghbcond   1.0   0.0
ghbcond3pp14  log    factor      1.000000       1.0000000E-04    10000.00           ghbcond   1.0   0.0
ghbcond1pp15  log    factor      1.000000       1.0000000E-04    10000.00           ghbcond   1.0   0.0
ghbcond3pp15  log    factor      1.000000       1.0000000E-04    10000.00           ghbcond   1.0   0.0
ghbcond1pp16  log    factor      1.000000       1.0000000E-04    10000.00           ghbcond   1.0   0.0
ghbcond3pp16  log    factor      1.000000       1.0000000E-04    10000.00           ghbcond   1.0   0.0
ghbcond1pp17  log    factor      1.000000       1.0000000E-04    10000.00           ghbcond   1.0   0.0
ghbcond3pp17  log    factor      1.000000       1.0000000E-04    10000.00           ghbcond   1.0   0.0
ghbcond1pp18  log    factor      1.000000       1.0000000E-04    10000.00           ghbcond   1.0   0.0
ghbcond3pp18  log    factor      1.000000       1.0000000E-04    10000.00           ghbcond   1.0   0.0
ghbcond1pp19  log    factor      1.000000       1.0000000E-04    10000.00           ghbcond   1.0   0.0
ghbcond3pp19  log    factor      1.000000       1.0000000E-04    10000.00           ghbcond   1.0   0.0
ghbcond1pp20  log    factor      1.000000       1.0000000E-04    10000.00           ghbcond   1.0   0.0
ghbcond3pp20  log    factor      1.000000       1.0000000E-04    10000.00           ghbcond   1.0   0.0
ghbcond1pp21  log    factor      1.000000       1.0000000E-04    10000.00           ghbcond   1.0   0.0
ghbcond3pp21  log    factor      1.000000       1.0000000E-04    10000.00           ghbcond   1.0   0.0
ghbcond1pp22  log    factor      1.000000       1.0000000E-04    10000.00           ghbcond   1.0   0.0
ghbcond3pp22  log    factor      1.000000       1.0000000E-04    10000.00           ghbcond   1.0   0.0
ghbcond1pp23  log    factor      1.000000       1.0000000E-04    10000.00           ghbcond   1.0   0.0
ghbcond3pp23  log    factor      1.000000       1.0000000E-04    10000.00           ghbcond   1.0   0.0
ghbcond1pp24  log    factor      1.000000       1.0000000E-04    10000.00           ghbcond   1.0   0.0
ghbcond3pp24  log    factor      1.000000       1.0000000E-04    10000.00           ghbcond   1.0   0.0
ghbcond1pp25  log    factor      1.000000       1.0000000E-04    10000.00           ghbcond   1.0   0.0
ghbcond3pp25  log    factor      1.000000       1.0000000E-04    10000.00           ghbcond   1.0   0.0
ghbcond1pp26  log    factor      1.000000       1.0000000E-04    10000.00           ghbcond   1.0   0.0
ghbcond3pp26  log    factor      1.000000       1.0000000E-04    10000.00           ghbcond   1.0   0.0
ghbcond1pp27  log    factor      1.000000       1.0000000E-04    10000.00           ghbcond   1.0   0.0
ghbcond3pp27  log    factor      1.000000       1.0000000E-04    10000.00           ghbcond   1.0   0.0
ghbcond1pp28  log    factor      1.000000       1.0000000E-04    10000.00           ghbcond   1.0   0.0
ghbcond3pp28  log    factor      1.000000       1.0000000E-04    10000.00           ghbcond   1.0   0.0
ghbcond1pp29  log    factor      1.000000       1.0000000E-04    10000.00           ghbcond   1.0   0.0
ghbcond3pp29  log    factor      1.000000       1.0000000E-04    10000.00           ghbcond   1.0   0.0
ghbcond1pp30  log    factor      1.000000       1.0000000E-04    10000.00           ghbcond   1.0   0.0
ghbcond3pp30  log    factor      1.000000       1.0000000E-04    10000.00           ghbcond   1.0   0.0
ghbcond1pp31  log    factor      1.000000       1.0000000E-04    10000.00           ghbcond   1.0   0.0
ghbcond3pp31  log    factor      1.000000       1.0000000E-04    10000.00           ghbcond   1.0   0.0
ghbcond1pp32  log    factor      1.000000       1.0000000E-04    10000.00           ghbcond   1.0   0.0
ghbcond3pp32  log    factor      1.000000       1.0000000E-04    10000.00           ghbcond   1.0   0.0
ghbcond1pp33  log    factor      1.000000       1.0000000E-04    10000.00           ghbcond   1.0   0.0
ghbcond3pp33  log    factor      1.000000       1.0000000E-04    10000.00           ghbcond   1.0   0.0
ghbcond1pp34  log    factor      1.000000       1.0000000E-04    10000.00           ghbcond   1.0   0.0
ghbcond3pp34  log    factor      1.000000       1.0000000E-04    10000.00           ghbcond   1.0   0.0
ghbcond1pp35  log    factor      1.000000       1.0000000E-04    10000.00           ghbcond   1.0   0.0
ghbcond3pp35  log    factor      1.000000       1.0000000E-04    10000.00           ghbcond   1.0   0.0
ghbcond1pp36  log    factor      1.000000       1.0000000E-04    10000.00           ghbcond   1.0   0.0
ghbcond3pp36  log    factor      1.000000       1.0000000E-04    10000.00           ghbcond   1.0   0.0
ghbcond1pp37  log    factor      1.000000       1.0000000E-04    10000.00           ghbcond   1.0   0.0
ghbcond3pp37  log    factor      1.000000       1.0000000E-04    10000.00           ghbcond   1.0   0.0
ghbcond1pp38  log    factor      1.000000       1.0000000E-04    10000.00           ghbcond   1.0   0.0
ghbcond3pp38  log    factor      1.000000       1.0000000E-04    10000.00           ghbcond   1.0   0.0
ghbcond1pp39  log    factor      1.000000       1.0000000E-04    10000.00           ghbcond   1.0   0.0
ghbcond3pp39  log    factor      1.000000       1.0000000E-04    10000.00           ghbcond   1.0   0.0
ghbcond1pp40  log    factor      1.000000       1.0000000E-04    10000.00           ghbcond   1.0   0.0
ghbcond3pp40  log    factor      1.000000       1.0000000E-04    10000.00           ghbcond   1.0   0.0
ghbcond1pp41  log    factor      1.000000       1.0000000E-04    10000.00           ghbcond   1.0   0.0
ghbcond3pp41  log    factor      1.000000       1.0000000E-04    10000.00           ghbcond   1.0   0.0
* observation groups
heads1
heads3
headiff
heads1_d
heads3_d
headiff_d
* observation data
 h1-4429_1              88.6758763           0.1000000          heads1
 h1-4429_2              88.6240874           0.1000000          heads1
 h1-4429_3              88.7005113           0.1000000          heads1
 h1-4429_4              88.8060733           0.1000000          heads1
 h1-4429_5              88.6065705           0.1000000          heads1
 h1-4429_6              88.5286620           0.1000000          heads1
 h1-4429_7              88.4891417           0.1000000          heads1
 h1-4429_8              88.8031412           0.1000000          heads1
 h1-4429_9              88.8882124           0.1000000          heads1
 h1-4429_10             88.7120622           0.1000000          heads1
 h1-4429_11             88.7427467           0.1000000          heads1
 h1-4429_12             89.0824583           0.1000000          heads1
 h1-4429_13             89.4692162           0.1000000          heads1
 h1-4429_14             89.7136145           0.1000000          heads1
 h1-4429_15             89.4982319           0.1000000          heads1
 h1-4429_16             89.3486166           0.1000000          heads1
 h1-4429_17             89.4252609           0.1000000          heads1
 h1-4429_18             89.4163920           0.1000000          heads1
 h1-4429_19             89.1894143           0.1000000          heads1
 h1-4429_20             88.9945153           0.1000000          heads1
 h1-4429_21             88.9251948           0.1000000          heads1
 h1-4429_22             89.0937303           0.1000000          heads1
 h1-4429_23             89.0741554           0.1000000          heads1
 h1-4429_24             88.9729706           0.1000000          heads1
 h1-4429_25             88.7025060           0.1000000          heads1
 h1-4429_26             88.5364375           0.1000000          heads1
 h1-4429_27             88.3399944           0.1000000          heads1
 h1-4429_28             88.2736455           0.1000000          heads1
 h1-4429_29             88.1701851           0.1000000          heads1
 h1-4429_30             87.8413198           0.1000000          heads1
 h1-4429_31             88.0347313           0.1000000          heads1
 h1-4429_32             88.0949982           0.1000000          heads1
 h1-4429_33             88.2697798           0.1000000          heads1
 h1-4429_34             88.2002081           0.1000000          heads1
 h1-4429_35             88.1000955           0.1000000          heads1
 h1-4429_36             88.1125079           0.1000000          heads1
 h1-4429_37             88.4765302           0.1000000          heads1
 h1-4429_38             88.4782479           0.1000000          heads1
 h1-4429_39             88.2973697           0.1000000          heads1
 h1-4429_40             88.5696732           0.1000000          heads1
 h1-4429_41             88.5863345           0.1000000          heads1
 h1-4429_42             88.5922942           0.1000000          heads1
 h1-4429_43             88.2659696           0.1000000          heads1
 h1-4429_44             88.2522597           0.1000000          heads1
 h1-4429_45             88.2159700           0.1000000          heads1
 h1-4429_46             88.3482682           0.1000000          heads1
 h1-4429_47             88.2741188           0.1000000          heads1
 h1-4429_48             88.1488130           0.1000000          heads1
 h1-4429_49             87.8837200           0.1000000          heads1
 h1-4429_50             87.9854991           0.1000000          heads1
 h1-1940_1              83.8395955           0.1000000          heads1
 h1-1940_2              83.8493539           0.1000000          heads1
 h1-1940_3              83.8968088           0.1000000          heads1
 h1-1940_4              84.0146893           0.1000000          heads1
 h1-1940_5              83.7438089           0.1000000          heads1
 h1-1940_6              83.6785537           0.1000000          heads1
 h1-1940_7              83.9876100           0.1000000          heads1
 h1-1940_8              83.9601823           0.1000000          heads1
 h1-1940_9              83.9956440           0.1000000          heads1
 h1-1940_10             83.8161412           0.1000000          heads1
 h1-1940_11             84.2615872           0.1000000          heads1
 h1-1940_12             83.8544944           0.1000000          heads1
 h1-1940_13             83.8623346           0.1000000          heads1
 h1-1940_14             83.9032352           0.1000000          heads1
 h1-1940_15             83.9346763           0.1000000          heads1
 h1-1940_16             84.0424244           0.1000000          heads1
 h1-1940_17             84.0656546           0.1000000          heads1
 h1-1940_18             84.0513820           0.1000000          heads1
 h1-1940_19             83.9508267           0.1000000          heads1
 h1-1940_20             83.7892638           0.1000000          heads1
 h1-1940_21             83.7466375           0.1000000          heads1
 h1-1940_22             83.8552090           0.1000000          heads1
 h1-1940_23             83.8963560           0.1000000          heads1
 h1-1940_24             83.8508721           0.1000000          heads1
 h1-1940_25             83.9209993           0.1000000          heads1
 h1-1940_26             83.8337777           0.1000000          heads1
 h1-1940_27             83.8265825           0.1000000          heads1
 h1-1940_28             83.7034150           0.1000000          heads1
 h1-1940_29             83.8215814           0.1000000          heads1
 h1-1940_30             83.7986324           0.1000000          heads1
 h1-1940_31             83.7572647           0.1000000          heads1
 h1-1940_32             83.6858728           0.1000000          heads1
 h1-1940_33             83.6667344           0.1000000          heads1
 h1-1940_34             83.7293550           0.1000000          heads1
 h1-1940_35             83.7352459           0.1000000          heads1
 h1-1940_36             83.7103602           0.1000000          heads1
 h1-1940_37             83.9404412           0.1000000          heads1
 h1-1940_38             83.9357714           0.1000000          heads1
 h1-1940_39             83.8251367           0.1000000          heads1
 h1-1940_40             83.6844968           0.1000000          heads1
 h1-1940_41             83.8458841           0.1000000          heads1
 h1-1940_42             83.8343070           0.1000000          heads1
 h1-1940_43             83.8318102           0.1000000          heads1
 h1-1940_44             83.8582899           0.1000000          heads1
 h1-1940_45             83.8175605           0.1000000          heads1
 h1-1940_46             83.7181426           0.1000000          heads1
 h1-1940_47             83.8296281           0.1000000          heads1
 h1-1940_48             83.9084535           0.1000000          heads1
 h1-1940_49             83.8478966           0.1000000          heads1
 h1-1940_50             83.8002596           0.1000000          heads1
 h1-1940_51             83.8489867           0.1000000          heads1
 h1-1940_52             83.7827227           0.1000000          heads1
 h1-1940_53             83.7950763           0.1000000          heads1
 h1-1940_54             83.6709299           0.1000000          heads1
 h1-193_1               83.9488688           0.1000000          heads1
 h1-193_2               84.1262815           0.1000000          heads1
 h1-193_3               84.2005735           0.1000000          heads1
 h1-193_4               83.7969143           0.1000000          heads1
 h1-193_5               84.0527037           0.1000000          heads1
 h1-193_6               84.1334446           0.1000000          heads1
 h1-193_7               84.0707702           0.1000000          heads1
 h1-193_8               84.1783694           0.1000000          heads1
 h1-193_9               84.0032704           0.1000000          heads1
 h1-193_10              84.0986934           0.1000000          heads1
 h1-193_11              84.3245285           0.1000000          heads1
 h1-193_12              84.5532785           0.1000000          heads1
 h1-193_13              84.5023689           0.1000000          heads1
 h1-193_14              84.5988406           0.1000000          heads1
 h1-193_15              84.5396285           0.1000000          heads1
 h1-193_16              84.4587182           0.1000000          heads1
 h1-193_17              84.3731781           0.1000000          heads1
 h1-193_18              84.1680795           0.1000000          heads1
 h1-193_19              84.1298349           0.1000000          heads1
 h1-193_20              84.1902485           0.1000000          heads1
 h1-193_21              84.3148333           0.1000000          heads1
 h1-193_22              84.2408200           0.1000000          heads1
 h1-193_23              84.2837423           0.1000000          heads1
 h1-193_24              84.0738500           0.1000000          heads1
 h1-193_25              84.0903164           0.1000000          heads1
 h1-193_26              83.9837418           0.1000000          heads1
 h1-193_27              84.0145948           0.1000000          heads1
 h1-193_28              83.9831899           0.1000000          heads1
 h1-193_29              84.0534247           0.1000000          heads1
 h1-193_30              83.8012313           0.1000000          heads1
 h1-193_31              83.8345113           0.1000000          heads1
 h1-193_32              83.8193049           0.1000000          heads1
 h1-193_33              83.8526086           0.1000000          heads1
 h1-193_34              83.7434875           0.1000000          heads1
 h1-193_35              83.6342964           0.1000000          heads1
 h1-193_36              83.6491698           0.1000000          heads1
 h1-193_37              83.5359449           0.1000000          heads1
 h1-193_38              83.7204258           0.1000000          heads1
 h1-193_39              83.7584238           0.1000000          heads1
 h1-193_40              83.8239877           0.1000000          heads1
 h1-193_41              83.8700172           0.1000000          heads1
 h1-193_42              83.8804607           0.1000000          heads1
 h1-193_43              83.7371237           0.1000000          heads1
 h1-193_44              83.8493012           0.1000000          heads1
 h1-193_45              83.8782819           0.1000000          heads1
 h1-193_46              84.0063626           0.1000000          heads1
 h1-193_47              84.0335674           0.1000000          heads1
 h1-193_48              83.9938656           0.1000000          heads1
 h1-193_49              84.0372839           0.1000000          heads1
 h1-193_50              83.8474089           0.1000000          heads1
 h1-193_51              83.9032826           0.1000000          heads1
 h1-193_52              83.9091498           0.1000000          heads1
 h1-193_53              83.9402224           0.1000000          heads1
 h1-193_54              83.9293498           0.1000000          heads1
 h1-193_55              83.8321302           0.1000000          heads1
 h1-193_56              83.7582952           0.1000000          heads1
 h1-193_57              83.8160701           0.1000000          heads1
 h1-193_58              83.6628714           0.1000000          heads1
 h1-193_59              83.7437701           0.1000000          heads1
 h1-193_60              83.7836684           0.1000000          heads1
 h1-193_61              83.6879140           0.1000000          heads1
 h1-193_62              83.6319575           0.1000000          heads1
 h1-193_63              83.6680560           0.1000000          heads1
 h1-193_64              83.6266457           0.1000000          heads1
 h3-3932_1              93.3984803            1.000000          heads3
 h3-3932_2              93.4848313            1.000000          heads3
 h3-3932_3              93.0007570            1.000000          heads3
 h3-3932_4              92.9360259            1.000000          heads3
 h3-3932_5              93.4795503            1.000000          heads3
 h3-3932_6              93.3421473            1.000000          heads3
 h3-3932_7              93.2846266            1.000000          heads3
 h3-3932_8              93.4631203            1.000000          heads3
 h3-3932_9              94.2952753            1.000000          heads3
 h3-3932_10             94.3887378            1.000000          heads3
 h3-3932_11             94.2687750            1.000000          heads3
 h3-3932_12             93.8433674            1.000000          heads3
 h3-3932_13             93.7569062            1.000000          heads3
 h3-3932_14             93.7665224            1.000000          heads3
 h3-3932_15             93.8289057            1.000000          heads3
 h3-3932_16             93.8581849            1.000000          heads3
 h3-3932_17             94.0421804            1.000000          heads3
 h3-3932_18             94.1713147            1.000000          heads3
 h3-3932_19             94.0957316            1.000000          heads3
 h3-3932_20             94.0847108            1.000000          heads3
 h3-3932_21             93.7463032            1.000000          heads3
 h3-3932_22             93.4947078            1.000000          heads3
 h3-3932_23             93.5300636            1.000000          heads3
 h3-3932_24             93.7075355            1.000000          heads3
 h3-3932_25             93.6485970            1.000000          heads3
 h3-3932_26             93.4280358            1.000000          heads3
 h3-3932_27             93.3069807            1.000000          heads3
 h3-3932_28             93.1892974            1.000000          heads3
 h3-3932_29             93.2073904            1.000000          heads3
 h3-3932_30             93.1904396            1.000000          heads3
 h3-3932_31             93.0289487            1.000000          heads3
 h3-3932_32             92.5756771            1.000000          heads3
 h3-3932_33             92.5141592            1.000000          heads3
 h3-3932_34             92.4984009            1.000000          heads3
 h3-3932_35             92.6240599            1.000000          heads3
 h3-3932_36             92.7903901            1.000000          heads3
 h3-3932_37             92.7088734            1.000000          heads3
 h3-3932_38             92.9727570            1.000000          heads3
 h3-3932_39             92.9899256            1.000000          heads3
 h3-3932_40             93.1395181            1.000000          heads3
 h3-3932_41             92.9447177            1.000000          heads3
 h3-3932_42             92.8562303            1.000000          heads3
 h3-3932_43             92.9172191            1.000000          heads3
 h3-3932_44             93.2869241            1.000000          heads3
 h3-3932_45             93.2869138            1.000000          heads3
 h3-3932_46             93.2848694            1.000000          heads3
 h3-3932_47             93.2920281            1.000000          heads3
 h3-3932_48             93.0367277            1.000000          heads3
 h3-3932_49             92.9950251            1.000000          heads3
 h3-3932_50             92.9985079            1.000000          heads3
 h3-3932_51             93.0183591            1.000000          heads3
 h3-3932_52             93.0967323            1.000000          heads3
 h3-3932_53             93.2474513            1.000000          heads3
 h3-3932_54             93.5087533            1.000000          heads3
 h3-3932_55             93.0571252            1.000000          heads3
 h3-3932_56             93.1404061            1.000000          heads3
 h3-3932_57             93.2179653            1.000000          heads3
 h3-3932_58             92.9477831            1.000000          heads3
 h3-3932_59             92.9259480            1.000000          heads3
 h3-3932_60             92.5989498            1.000000          heads3
 h3-3932_61             92.5439078            1.000000          heads3
 h3-3932_62             92.4601470            1.000000          heads3
 h3-3932_63             92.5650866            1.000000          heads3
 h3-4569_1              93.4951917            1.000000          heads3
 h3-4569_2              93.6601128            1.000000          heads3
 h3-4569_3              93.6478375            1.000000          heads3
 h3-4569_4              93.4451215            1.000000          heads3
 h3-4569_5              93.3820699            1.000000          heads3
 h3-4569_6              93.3956125            1.000000          heads3
 h3-4569_7              93.3362419            1.000000          heads3
 h3-4569_8              93.5909269            1.000000          heads3
 h3-4569_9              93.7677891            1.000000          heads3
 h3-4569_10             93.7582048            1.000000          heads3
 h3-4569_11             93.6902961            1.000000          heads3
 h3-4569_12             93.7526314            1.000000          heads3
 h3-4569_13             93.8124704            1.000000          heads3
 h3-4569_14             94.0671845            1.000000          heads3
 h3-4569_15             94.4039796            1.000000          heads3
 h3-4569_16             94.2674451            1.000000          heads3
 h3-4569_17             94.2623694            1.000000          heads3
 h3-4569_18             94.3559794            1.000000          heads3
 h3-4569_19             94.1817280            1.000000          heads3
 h3-4569_20             94.3258770            1.000000          heads3
 h3-4569_21             94.5170833            1.000000          heads3
 h3-4569_22             94.4958490            1.000000          heads3
 h3-4569_23             94.3088989            1.000000          heads3
 h3-4569_24             94.3090509            1.000000          heads3
 h3-4569_25             94.2992812            1.000000          heads3
 h3-4569_26             93.9874109            1.000000          heads3
 h3-4569_27             94.0815736            1.000000          heads3
 h3-4569_28             93.9330435            1.000000          heads3
 h3-4569_29             93.8762854            1.000000          heads3
 h3-4569_30             93.7139137            1.000000          heads3
 h3-4569_31             93.6024432            1.000000          heads3
 h3-4569_32             93.4060510            1.000000          heads3
 h3-4569_33             93.4040916            1.000000          heads3
 h3-4569_34             93.2785357            1.000000          heads3
 h3-4569_35             93.2474149            1.000000          heads3
 h3-4569_36             93.0821303            1.000000          heads3
 h3-4569_37             93.0637914            1.000000          heads3
 h3-4569_38             93.2605186            1.000000          heads3
 h3-4569_39             93.2914213            1.000000          heads3
 h3-4569_40             93.3375934            1.000000          heads3
 h3-4569_41             93.2165210            1.000000          heads3
 h3-4569_42             93.1583894            1.000000          heads3
 h3-4569_43             93.1767946            1.000000          heads3
 h3-4569_44             93.1623776            1.000000          heads3
 h3-4569_45             93.4842797            1.000000          heads3
 h3-4569_46             93.4349516            1.000000          heads3
 h3-4569_47             93.2377808            1.000000          heads3
 h3-4569_48             93.2745103            1.000000          heads3
 h3-4569_49             93.2033271            1.000000          heads3
 h3-4569_50             93.2360533            1.000000          heads3
 h3-4569_51             93.3940176            1.000000          heads3
 h3-4569_52             93.3291824            1.000000          heads3
 h3-4569_53             93.3764186            1.000000          heads3
 h3-4569_54             93.2049455            1.000000          heads3
 h3-4569_55             93.2167569            1.000000          heads3
 h3-4569_56             93.2361503            1.000000          heads3
 h3-4569_57             93.0928983            1.000000          heads3
 h3-4569_58             92.8619085            1.000000          heads3
 h3-4569_59             92.8707861            1.000000          heads3
 h3-4569_60             92.7386022            1.000000          heads3
 h3-4569_61             92.7252615            1.000000          heads3
 h3-3794_1              91.4730771            1.000000          heads3
 h3-3794_2              91.5728004            1.000000          heads3
 h3-3794_3              91.5340851            1.000000          heads3
 h3-3794_4              91.6777822            1.000000          heads3