# File generated by Flopy version 3.3.3 on 02/11/2021 at 12:42:17.
BEGIN options
  DIGITS  9
END options

BEGIN continuous  FILEOUT  ghb_flow.csv
  ghb-1  GHB  west-boundary1
  ghb-3  GHB  west-boundary3
END continuous  FILEOUT  ghb_flow.csv

