# File generated by Flopy version 3.3.3 on 02/11/2021 at 12:42:17.
BEGIN options
  DIGITS  9
END options

BEGIN continuous  FILEOUT  evt_flow.csv
  evt-1  EVT  landuse1
  evt-2  EVT  landuse2
  evt-3  EVT  landuse3
END continuous  FILEOUT  evt_flow.csv

