# File generated by Flopy version 3.3.3 on 02/11/2021 at 12:42:16.
BEGIN options
  auxiliary  MULTIPLIER
  AUXMULTNAME  multiplier
  BOUNDNAMES
  TS6  FILEIN  evp.ts
  OBS6  FILEIN  model.evt.obs
END options

BEGIN dimensions
  MAXBOUND  4217
  NSEG  1
END dimensions

BEGIN period  1
  1 1     113.80310059  evp_lu1      10.00000000       0.00000000       1.00000000  landuse1
  1 2     112.27372742  evp_lu1      10.00000000       0.00000000       1.00000000  landuse1
  1 3     110.71407318  evp_lu1      10.00000000       0.00000000       1.00000000  landuse1
  1 4     109.16827393  evp_lu1      10.00000000       0.00000000       1.00000000  landuse1
  1 5     107.62925720  evp_lu1      10.00000000       0.00000000       1.00000000  landuse1
  1 6     106.08296204  evp_lu1      10.00000000       0.00000000       1.00000000  landuse1
  1 7     104.55234528  evp_lu1      10.00000000       0.00000000       1.00000000  landuse1
  1 8     103.04358673  evp_lu1      10.00000000       0.00000000       1.00000000  landuse1
  1 9     101.48725891  evp_lu1      10.00000000       0.00000000       1.00000000  landuse1
  1 10     100.02814484  evp_lu1      10.00000000       0.00000000       1.00000000  landuse1
  1 11      98.61745453  evp_lu1      10.00000000       0.00000000       1.00000000  landuse1
  1 12      97.24736023  evp_lu1      10.00000000       0.00000000       1.00000000  landuse1
  1 13      96.50747681  evp_lu1      10.00000000       0.00000000       1.00000000  landuse1
  1 14      95.88565826  evp_lu1      10.00000000       0.00000000       1.00000000  landuse1
  1 15      95.33622742  evp_lu1      10.00000000       0.00000000       1.00000000  landuse1
  1 16      94.81226349  evp_lu1      10.00000000       0.00000000       1.00000000  landuse1
  1 17      94.32510376  evp_lu1      10.00000000       0.00000000       1.00000000  landuse1
  1 18      93.87625122  evp_lu1      10.00000000       0.00000000       1.00000000  landuse1
  1 19      93.43533325  evp_lu1      10.00000000       0.00000000       1.00000000  landuse1
  1 20      93.00566101  evp_lu1      10.00000000       0.00000000       1.00000000  landuse1
  1 21      92.52083588  evp_lu1      10.00000000       0.00000000       1.00000000  landuse1
  1 22      92.08876038  evp_lu1      10.00000000       0.00000000       1.00000000  landuse1
  1 23      91.65180969  evp_lu1      10.00000000       0.00000000       1.00000000  landuse1
  1 24      91.20829010  evp_lu1      10.00000000       0.00000000       1.00000000  landuse1
  1 25      90.77410126  evp_lu1      10.00000000       0.00000000       1.00000000  landuse1
  1 26      90.33278656  evp_lu1      10.00000000       0.00000000       1.00000000  landuse1
  1 27      89.89356995  evp_lu1      10.00000000       0.00000000       1.00000000  landuse1
  1 28      89.46178436  evp_lu1      10.00000000       0.00000000       1.00000000  landuse1
  1 29      89.03141785  evp_lu1      10.00000000       0.00000000       1.00000000  landuse1
  1 30      88.61634827  evp_lu1      10.00000000       0.00000000       1.00000000  landuse1
  1 31      88.20399475  evp_lu1      10.00000000       0.00000000       1.00000000  landuse1
  1 32      87.80307770  evp_lu1      10.00000000       0.00000000       1.00000000  landuse1
  1 33      87.39691162  evp_lu1      10.00000000       0.00000000       1.00000000  landuse1
  1 34      86.99667358  evp_lu1      10.00000000       0.00000000       1.00000000  landuse1
  1 35      86.59992981  evp_lu1      10.00000000       0.00000000       1.00000000  landuse1
  1 36      86.19165802  evp_lu1      10.00000000       0.00000000       1.00000000  landuse1
  1 37      85.81326294  evp_lu1      10.00000000       0.00000000       1.00000000  landuse1
  1 38      85.57397461  evp_lu1      10.00000000       0.00000000       1.00000000  landuse1
  1 39      85.36214447  evp_lu1      10.00000000       0.00000000       1.00000000  landuse1
  1 40      85.50852203  evp_lu1      10.00000000       0.00000000       1.00000000  landuse1
  1 41      85.30529785  evp_lu1      10.00000000       0.00000000       1.00000000  landuse1
  1 42      85.20563507  evp_lu1      10.00000000       0.00000000       1.00000000  landuse1
  1 43      85.10896301  evp_lu1      10.00000000       0.00000000       1.00000000  landuse1
  1 44      85.06098175  evp_lu1      10.00000000       0.00000000       1.00000000  landuse1
  1 45      85.02774048  evp_lu1      10.00000000       0.00000000       1.00000000  landuse1
  1 46      85.04395294  evp_lu1      10.00000000       0.00000000       1.00000000  landuse1
  1 47      85.01058960  evp_lu1      10.00000000       0.00000000       1.00000000  landuse1
  1 48      85.07638550  evp_lu1      10.00000000       0.00000000       1.00000000  landuse1
  1 49      85.02540588  evp_lu1      10.00000000       0.00000000       1.00000000  landuse1
  1 50      84.99718475  evp_lu1      10.00000000       0.00000000       1.00000000  landuse1
  1 51      85.01002502  evp_lu1      10.00000000       0.00000000       1.00000000  landuse1
  1 52      84.99253082  evp_lu1      10.00000000       0.00000000       1.00000000  landuse1
  1 53      85.19828033  evp_lu1      10.00000000       0.00000000       1.00000000  landuse1
  1 54      85.11801147  evp_lu1      10.00000000       0.00000000       1.00000000  landuse1
  1 55      85.17005157  evp_lu1      10.00000000       0.00000000       1.00000000  landuse1
  1 56      85.08720398  evp_lu1      10.00000000       0.00000000       1.00000000  landuse1
  1 57      85.07130432  evp_lu1      10.00000000       0.00000000       1.00000000  landuse1
  1 58      85.03559875  evp_lu1      10.00000000       0.00000000       1.00000000  landuse1
  1 59      85.05580902  evp_lu1      10.00000000       0.00000000       1.00000000  landuse1
  1 60      85.01998901  evp_lu1      10.00000000       0.00000000       1.00000000  landuse1
  1 61      84.99834442  evp_lu1      10.00000000       0.00000000       1.00000000  landuse1
  1 63      84.99371338  evp_lu1      10.00000000       0.00000000       1.00000000  landuse1
  1 65      85.03752899  evp_lu1      10.00000000       0.00000000       1.00000000  landuse1
  1 66      85.00154114  evp_lu1      10.00000000       0.00000000       1.00000000  landuse1
  1 67      85.02375031  evp_lu1      10.00000000       0.00000000       1.00000000  landuse1
  1 68      84.99586487  evp_lu1      10.00000000       0.00000000       1.00000000  landuse1
  1 70      84.99841309  evp_lu1      10.00000000       0.00000000       1.00000000  landuse1
  1 72      84.99310303  evp_lu1      10.00000000       0.00000000       1.00000000  landuse1
  1 83     112.98202515  evp_lu1      10.00000000       0.00000000       1.00000000  landuse1
  1 84     111.48103333  evp_lu1      10.00000000       0.00000000       1.00000000  landuse1
  1 85     109.95848083  evp_lu1      10.00000000       0.00000000       1.00000000  landuse1
  1 86     108.46534729  evp_lu1      10.00000000       0.00000000       1.00000000  landuse1
  1 87     106.99819946  evp_lu1      10.00000000       0.00000000       1.00000000  landuse1
  1 88     105.53603363  evp_lu1      10.00000000       0.00000000       1.00000000  landuse1
  1 89     104.06297302  evp_lu1      10.00000000       0.00000000       1.00000000  landuse1
  1 90     102.61985016  evp_lu1      10.00000000       0.00000000       1.00000000  landuse1
  1 91     101.15249634  evp_lu1      10.00000000       0.00000000       1.00000000  landuse1
  1 92      99.76177216  evp_lu1      10.00000000       0.00000000       1.00000000  landuse1
  1 93      98.41593933  evp_lu1      10.00000000       0.00000000       1.00000000  landuse1
  1 94      97.10972595  evp_lu1      10.00000000       0.00000000       1.00000000  landuse1
  1 95      96.41988373  evp_lu1      10.00000000       0.00000000       1.00000000  landuse1
  1 96      95.79266357  evp_lu1      10.00000000       0.00000000       1.00000000  landuse1
  1 97      95.21646881  evp_lu1      10.00000000       0.00000000       1.00000000  landuse1
  1 98      94.70619202  evp_lu1      10.00000000       0.00000000       1.00000000  landuse1
  1 99      94.23918915  evp_lu1      10.00000000       0.00000000       1.00000000  landuse1
  1 100      93.78970337  evp_lu1      10.00000000       0.00000000       1.00000000  landuse1
  1 101      93.35863495  evp_lu1      10.00000000       0.00000000       1.00000000  landuse1
  1 102      92.93443298  evp_lu1      10.00000000       0.00000000       1.00000000  landuse1
  1 103      92.46823883  evp_lu1      10.00000000       0.00000000       1.00000000  landuse1
  1 104      92.02281952  evp_lu1      10.00000000       0.00000000       1.00000000  landuse1
  1 105      91.57955170  evp_lu1      10.00000000       0.00000000       1.00000000  landuse1
  1 106      91.13442230  evp_lu1      10.00000000       0.00000000       1.00000000  landuse1
  1 107      90.68785858  evp_lu1      10.00000000       0.00000000       1.00000000  landuse1
  1 108      90.24005127  evp_lu1      10.00000000       0.00000000       1.00000000  landuse1
  1 109      89.79808044  evp_lu1      10.00000000       0.00000000       1.00000000  landuse1
  1 110      89.35679626  evp_lu1      10.00000000       0.00000000       1.00000000  landuse1
  1 111      88.92984772  evp_lu1      10.00000000       0.00000000       1.00000000  landuse1
  1 112      88.50751495  evp_lu1      10.00000000       0.00000000       1.00000000  landuse1
  1 113      88.08938599  evp_lu1      10.00000000       0.00000000       1.00000000  landuse1
  1 114      87.67573547  evp_lu1      10.00000000       0.00000000       1.00000000  landuse1
  1 115      87.26412201  evp_lu1      10.00000000       0.00000000       1.00000000  landuse1
  1 116      86.86235046  evp_lu1      10.00000000       0.00000000       1.00000000  landuse1
  1 117      86.46697998  evp_lu1      10.00000000       0.00000000       1.00000000  landuse1
  1 118      86.07008362  evp_lu1      10.00000000       0.00000000       1.00000000  landuse1
  1 119      85.67948151  evp_lu1      10.00000000       0.00000000       1.00000000  landuse1
  1 120      85.44287872  evp_lu1      10.00000000       0.00000000       1.00000000  landuse1
  1 121      85.25106049  evp_lu1      10.00000000       0.00000000       1.00000000  landuse1
  1 122      85.38083649  evp_lu1      10.00000000       0.00000000       1.00000000  landuse1
  1 123      85.20590973  evp_lu1      10.00000000       0.00000000       1.00000000  landuse1
  1 124      85.14214325  evp_lu1      10.00000000       0.00000000       1.00000000  landuse1
  1 125      85.05881500  evp_lu1      10.00000000       0.00000000       1.00000000  landuse1
  1 126      85.11128235  evp_lu1      10.00000000       0.00000000       1.00000000  landuse1
  1 127      85.05389404  evp_lu1      10.00000000       0.00000000       1.00000000  landuse1
  1 128      85.01567078  evp_lu1      10.00000000       0.00000000       1.00000000  landuse1
  1 129      85.04119110  evp_lu1      10.00000000       0.00000000       1.00000000  landuse1
  1 130      85.00103760  evp_lu1      10.00000000       0.00000000       1.00000000  landuse1
  1 131      85.00939941  evp_lu1      10.00000000       0.00000000       1.00000000  landuse1
  1 133      84.99846649  evp_lu1      10.00000000       0.00000000       1.00000000  landuse1
  1 136      84.99344635  evp_lu1      10.00000000       0.00000000       1.00000000  landuse1
  1 141      85.08860779  evp_lu1      10.00000000       0.00000000       1.00000000  landuse1
  1 142      85.02650452  evp_lu1      10.00000000       0.00000000       1.00000000  landuse1
  1 143      84.99596405  evp_lu1      10.00000000       0.00000000       1.00000000  landuse1
  1 144      85.01345062  evp_lu1      10.00000000       0.00000000       1.00000000  landuse1
  1 145      84.99240112  evp_lu1      10.00000000       0.00000000       1.00000000  landuse1
  1 146      85.06043243  evp_lu1      10.00000000       0.00000000       1.00000000  landuse1
  1 147      84.99948883  evp_lu1      10.00000000       0.00000000       1.00000000  landuse1
  1 149      84.99585724  evp_lu1      10.00000000       0.00000000       1.00000000  landuse1
  1 159     112.18534851  evp_lu1      10.00000000       0.00000000       1.00000000  landuse1
  1 160     110.74909210  evp_lu1      10.00000000       0.00000000       1.00000000  landuse1
  1 161     109.30266571  evp_lu1      10.00000000       0.00000000       1.00000000  landuse1
  1 162     107.87622070  evp_lu1      10.00000000       0.00000000       1.00000000  landuse1
  1 163     106.47556305  evp_lu1      10.00000000       0.00000000       1.00000000  landuse1
  1 164     105.08781433  evp_lu1      10.00000000       0.00000000       1.00000000  landuse1
  1 165     103.70140076  evp_lu1      10.00000000       0.00000000       1.00000000  landuse1
  1 166     102.31846619  evp_lu1      10.00000000       0.00000000       1.00000000  landuse1
  1 167     100.92201233  evp_lu1      10.00000000       0.00000000       1.00000000  landuse1
  1 168      99.57052612  evp_lu1      10.00000000       0.00000000       1.00000000  landuse1
  1 169      98.26863098  evp_lu1      10.00000000       0.00000000       1.00000000  landuse1
  1 170      97.01639557  evp_lu1      10.00000000       0.00000000       1.00000000  landuse1
  1 171      96.35144043  evp_lu1      10.00000000       0.00000000       1.00000000  landuse1
  1 172      95.74122620  evp_lu1      10.00000000       0.00000000       1.00000000  landuse1
  1 173      95.16016388  evp_lu1      10.00000000       0.00000000       1.00000000  landuse1
  1 174      94.63951111  evp_lu1      10.00000000       0.00000000       1.00000000  landuse1
  1 175      94.17002106  evp_lu1      10.00000000       0.00000000       1.00000000  landuse1
  1 176      93.72278595  evp_lu1      10.00000000       0.00000000       1.00000000  landuse1
  1 177      93.28500366  evp_lu1      10.00000000       0.00000000       1.00000000  landuse1
  1 178      92.84762573  evp_lu1      10.00000000       0.00000000       1.00000000  landuse1
  1 179      92.39864349  evp_lu1      10.00000000       0.00000000       1.00000000  landuse1
  1 180      91.94833374  evp_lu1      10.00000000       0.00000000       1.00000000  landuse1
  1 181      91.50085449  evp_lu1      10.00000000       0.00000000       1.00000000  landuse1
  1 182      91.05475616  evp_lu1      10.00000000       0.00000000       1.00000000  landuse1
  1 183      90.60049438  evp_lu1      10.00000000       0.00000000       1.00000000  landuse1
  1 184      90.14984894  evp_lu1      10.00000000       0.00000000       1.00000000  landuse1
  1 185      89.70918274  evp_lu1      10.00000000       0.00000000       1.00000000  landuse1
  1 186      89.26696777  evp_lu1      10.00000000       0.00000000       1.00000000  landuse1
  1 187      88.83192444  evp_lu1      10.00000000       0.00000000       1.00000000  landuse1
  1 188      88.40230560  evp_lu1      10.00000000       0.00000000       1.00000000  landuse1
  1 189      87.97769165  evp_lu1      10.00000000       0.00000000       1.00000000  landuse1
  1 190      87.55792999  evp_lu1      10.00000000       0.00000000       1.00000000  landuse1
  1 191      87.14356995  evp_lu1      10.00000000       0.00000000       1.00000000  landuse1
  1 192      86.73834229  evp_lu1      10.00000000       0.00000000       1.00000000  landuse1
  1 193      86.35130310  evp_lu1      10.00000000       0.00000000       1.00000000  landuse1
  1 194      85.96304321  evp_lu1      10.00000000       0.00000000       1.00000000  landuse1
  1 195      85.58641052  evp_lu1      10.00000000       0.00000000       1.00000000  landuse1
  1 196      85.33296967  evp_lu1      10.00000000       0.00000000       1.00000000  landuse1
  1 197      85.20906830  evp_lu1      10.00000000       0.00000000       1.00000000  landuse1
  1 198      85.11779785  evp_lu1      10.00000000       0.00000000       1.00000000  landuse1
  1 199      85.18603516  evp_lu1      10.00000000       0.00000000       1.00000000  landuse1
  1 200      85.09342194  evp_lu1      10.00000000       0.00000000       1.00000000  landuse1
  1 201      85.29290771  evp_lu1      10.00000000       0.00000000       1.00000000  landuse1
  1 202      85.16693115  evp_lu1      10.00000000       0.00000000       1.00000000  landuse1
  1 203      85.07441711  evp_lu1      10.00000000       0.00000000       1.00000000  landuse1
  1 204      85.14646912  evp_lu1      10.00000000       0.00000000       1.00000000  landuse1
  1 205      85.05390930  evp_lu1      10.00000000       0.00000000       1.00000000  landuse1
  1 206      85.06151581  evp_lu1      10.00000000       0.00000000       1.00000000  landuse1
  1 207      85.01994324  evp_lu1      10.00000000       0.00000000       1.00000000  landuse1
  1 208      85.04832458  evp_lu1      10.00000000       0.00000000       1.00000000  landuse1
  1 209      85.00672150  evp_lu1      10.00000000       0.00000000       1.00000000  landuse1
  1 210      84.99234772  evp_lu1      10.00000000       0.00000000       1.00000000  landuse1
  1 214      85.03462982  evp_lu1      10.00000000       0.00000000       1.00000000  landuse1
  1 215      84.99811554  evp_lu1      10.00000000       0.00000000       1.00000000  landuse1
  1 216      85.02514648  evp_lu1      10.00000000       0.00000000       1.00000000  landuse1
  1 217      84.99582672  evp_lu1      10.00000000       0.00000000       1.00000000  landuse1
  1 223      85.01567841  evp_lu1      10.00000000       0.00000000       1.00000000  landuse1
  1 225      85.00621033  evp_lu1      10.00000000       0.00000000       1.00000000  landuse1
  1 228      84.99887848  evp_lu1      10.00000000       0.00000000       1.00000000  landuse1
  1 230      84.99676514  evp_lu1      10.00000000       0.00000000       1.00000000  landuse1
  1 238     111.42344666  evp_lu1      10.00000000       0.00000000       1.00000000  landuse1
  1 239     110.12893677  evp_lu1      10.00000000       0.00000000       1.00000000  landuse1
  1 240     108.83815002  evp_lu1      10.00000000       0.00000000       1.00000000  landuse1
  1 241     107.47351837  evp_lu1      10.00000000       0.00000000       1.00000000  landuse1
  1 242     106.09843445  evp_lu1      10.00000000       0.00000000       1.00000000  landuse1
  1 243     104.75895691  evp_lu1      10.00000000       0.00000000       1.00000000  landuse1
  1 244     103.44880676  evp_lu1      10.00000000       0.00000000       1.00000000  landuse1
  1 245     102.13883209  evp_lu1      10.00000000       0.00000000       1.00000000  landuse1
  1 246     100.77497101  evp_lu1      10.00000000       0.00000000       1.00000000  landuse1
  1 247      99.44651794  evp_lu1      10.00000000       0.00000000       1.00000000  landuse1
  1 248      98.17344666  evp_lu1      10.00000000       0.00000000       1.00000000  landuse1
  1 249      96.98578644  evp_lu1      10.00000000       0.00000000       1.00000000  landuse1
  1 250      96.33572388  evp_lu1      10.00000000       0.00000000       1.00000000  landuse1
  1 251      95.72084045  evp_lu1      10.00000000       0.00000000       1.00000000  landuse1
  1 252      95.13026428  evp_lu1      10.00000000       0.00000000       1.00000000  landuse1
  1 253      94.59160614  evp_lu1      10.00000000       0.00000000       1.00000000  landuse1
  1 254      94.12721252  evp_lu1      10.00000000       0.00000000       1.00000000  landuse1
  1 255      93.67344666  evp_lu1      10.00000000       0.00000000       1.00000000  landuse1
  1 256      93.22515106  evp_lu1      10.00000000       0.00000000       1.00000000  landuse1
  1 257      92.77829742  evp_lu1      10.00000000       0.00000000       1.00000000  landuse1
  1 258      92.32714081  evp_lu1      10.00000000       0.00000000       1.00000000  landuse1
  1 259      91.87427521  evp_lu1      10.00000000       0.00000000       1.00000000  landuse1
  1 260      91.42140961  evp_lu1      10.00000000       0.00000000       1.00000000  landuse1
  1 261      90.96707153  evp_lu1      10.00000000       0.00000000       1.00000000  landuse1
  1 262      90.51487732  evp_lu1      10.00000000       0.00000000       1.00000000  landuse1
  1 263      90.06810760  evp_lu1      10.00000000       0.00000000       1.00000000  landuse1
  1 264      89.62337494  evp_lu3      10.00000000       0.00000000       1.00000000  landuse3
  1 265      89.18014526  evp_lu3      10.00000000       0.00000000       1.00000000  landuse3
  1 266      88.74247742  evp_lu3      10.00000000       0.00000000       1.00000000  landuse3
  1 267      88.30950165  evp_lu3      10.00000000       0.00000000       1.00000000  landuse3
  1 268      87.88209534  evp_lu1      10.00000000       0.00000000       1.00000000  landuse1
  1 269      87.46041870  evp_lu1      10.00000000       0.00000000       1.00000000  landuse1
  1 270      87.04435730  evp_lu1      10.00000000       0.00000000       1.00000000  landuse1
  1 271      86.63764954  evp_lu1      10.00000000       0.00000000       1.00000000  landuse1
  1 272      86.25954437  evp_lu1      10.00000000       0.00000000       1.00000000  landuse1
  1 273      85.88483429  evp_lu1      10.00000000       0.00000000       1.00000000  landuse1
  1 274      85.51808167  evp_lu1      10.00000000       0.00000000       1.00000000  landuse1
  1 275      85.26090240  evp_lu1      10.00000000       0.00000000       1.00000000  landuse1
  1 276      85.13150024  evp_lu1      10.00000000       0.00000000       1.00000000  landuse1
  1 277      85.06302643  evp_lu1      10.00000000       0.00000000       1.00000000  landuse1
  1 278      85.02061462  evp_lu1      10.00000000       0.00000000       1.00000000  landuse1
  1 279      85.05814362  evp_lu1      10.00000000       0.00000000       1.00000000  landuse1
  1 280      85.01582336  evp_lu1      10.00000000       0.00000000       1.00000000  landuse1
  1 281      85.12055969  evp_lu1      10.00000000       0.00000000       1.00000000  landuse1
  1 282      85.05239868  evp_lu1      10.00000000       0.00000000       1.00000000  landuse1
  1 283      85.01023865  evp_lu1      10.00000000       0.00000000       1.00000000  landuse1
  1 284      85.04761505  evp_lu1      10.00000000       0.00000000       1.00000000  landuse1
  1 285      85.00549316  evp_lu1      10.00000000       0.00000000       1.00000000  landuse1
  1 286      85.23661041  evp_lu1      10.00000000       0.00000000       1.00000000  landuse1
  1 287      85.11102295  evp_lu1      10.00000000       0.00000000       1.00000000  landuse1
  1 288      85.04287720  evp_lu1      10.00000000       0.00000000       1.00000000  landuse1
  1 289      85.00074768  evp_lu1      10.00000000       0.00000000       1.00000000  landuse1
  1 290      85.03814697  evp_lu1      10.00000000       0.00000000       1.00000000  landuse1
  1 291      84.99921417  evp_lu1      10.00000000       0.00000000       1.00000000  landuse1
  1 292      85.10415649  evp_lu1      10.00000000       0.00000000       1.00000000  landuse1
  1 293      85.03539276  evp_lu1      10.00000000       0.00000000       1.00000000  landuse1
  1 294      84.99900818  evp_lu1      10.00000000       0.00000000       1.00000000  landuse1
  1 295      85.03559875  evp_lu1      10.00000000       0.00000000       1.00000000  landuse1
  1 296      84.99908447  evp_lu1      10.00000000       0.00000000       1.00000000  landuse1
  1 297      84.99555969  evp_lu1      10.00000000       0.00000000       1.00000000  landuse1
  1 311     110.68889618  evp_lu1      10.00000000       0.00000000       1.00000000  landuse1
  1 312     109.58599854  evp_lu1      10.00000000       0.00000000       1.00000000  landuse1
  1 313     108.45707703  evp_lu1      10.00000000       0.00000000       1.00000000  landuse1
  1 314     107.15776062  evp_lu1      10.00000000       0.00000000       1.00000000  landuse1
  1 315     105.78839111  evp_lu1      10.00000000       0.00000000       1.00000000  landuse1
  1 316     104.47446442  evp_lu1      10.00000000       0.00000000       1.00000000  landuse1
  1 317     103.20558929  evp_lu1      10.00000000       0.00000000       1.00000000  landuse1
  1 318     101.93577576  evp_lu1      10.00000000       0.00000000       1.00000000  landuse1
  1 319     100.63488770  evp_lu1      10.00000000       0.00000000       1.00000000  landuse1
  1 320      99.34629059  evp_lu1      10.00000000       0.00000000       1.00000000  landuse1
  1 321      98.10302734  evp_lu1      10.00000000       0.00000000       1.00000000  landuse1
  1 322      97.01638031  evp_lu1      10.00000000       0.00000000       1.00000000  landuse1
  1 323      96.36405182  evp_lu1      10.00000000       0.00000000       1.00000000  landuse1
  1 324      95.75767517  evp_lu1      10.00000000       0.00000000       1.00000000  landuse1
  1 325      95.17926025  evp_lu1      10.00000000       0.00000000       1.00000000  landuse1
  1 326      94.63629913  evp_lu1      10.00000000       0.00000000       1.00000000  landuse1
  1 327      94.14197540  evp_lu1      10.00000000       0.00000000       1.00000000  landuse1
  1 328      93.66907501  evp_lu1      10.00000000       0.00000000       1.00000000  landuse1
  1 329      93.20478058  evp_lu1      10.00000000       0.00000000       1.00000000  landuse1
  1 330      92.74083710  evp_lu1      10.00000000       0.00000000       1.00000000  landuse1
  1 331      92.27748871  evp_lu1      10.00000000       0.00000000       1.00000000  landuse1
  1 332      91.81589508  evp_lu1      10.00000000       0.00000000       1.00000000  landuse1
  1 333      91.35620880  evp_lu1      10.00000000       0.00000000       1.00000000  landuse1
  1 334      90.89779663  evp_lu1      10.00000000       0.00000000       1.00000000  landuse1
  1 335      90.44274139  evp_lu1      10.00000000       0.00000000       1.00000000  landuse1
  1 336      89.99195099  evp_lu1      10.00000000       0.00000000       1.00000000  landuse1
  1 337      89.54432678  evp_lu3      10.00000000       0.00000000       1.00000000  landuse3
  1 338      89.10050964  evp_lu3      10.00000000       0.00000000       1.00000000  landuse3
  1 339      88.66190338  evp_lu3      10.00000000       0.00000000       1.00000000  landuse3
  1 340      88.22914886  evp_lu3      10.00000000       0.00000000       1.00000000  landuse3
  1 341      87.80281067  evp_lu1      10.00000000       0.00000000       1.00000000  landuse1
  1 342      87.38574219  evp_lu1      10.00000000       0.00000000       1.00000000  landuse1
  1 343      86.97217560  evp_lu1      10.00000000       0.00000000       1.00000000  landuse1
  1 344      86.57279968  evp_lu1      10.00000000       0.00000000       1.00000000  landuse1
  1 345      86.19632721  evp_lu1      10.00000000       0.00000000       1.00000000  landuse1
  1 346      85.83145142  evp_lu1      10.00000000       0.00000000       1.00000000  landuse1
  1 347      85.47674561  evp_lu1      10.00000000       0.00000000       1.00000000  landuse1
  1 348      85.23138428  evp_lu1      10.00000000       0.00000000       1.00000000  landuse1
  1 349      85.10358429  evp_lu1      10.00000000       0.00000000       1.00000000  landuse1
  1 350      85.03574371  evp_lu1      10.00000000       0.00000000       1.00000000  landuse1
  1 351      84.99914551  evp_lu1      10.00000000       0.00000000       1.00000000  landuse1
  1 352      85.03585052  evp_lu1      10.00000000       0.00000000       1.00000000  landuse1
  1 353      84.99922180  evp_lu1      10.00000000       0.00000000       1.00000000  landuse1
  1 354      85.10233307  evp_lu1      10.00000000       0.00000000       1.00000000  landuse1
  1 355      85.03591156  evp_lu1      10.00000000       0.00000000       1.00000000  landuse1
  1 356      84.99930573  evp_lu1      10.00000000       0.00000000       1.00000000  landuse1
  1 357      85.03588867  evp_lu1      10.00000000       0.00000000       1.00000000  landuse1
  1 358      84.99937439  evp_lu1      10.00000000       0.00000000       1.00000000  landuse1
  1 359      85.22074127  evp_lu1      10.00000000       0.00000000       1.00000000  landuse1
  1 360      85.10123444  evp_lu1      10.00000000       0.00000000       1.00000000  landuse1
  1 361      85.03721619  evp_lu1      10.00000000       0.00000000       1.00000000  landuse1
  1 362      84.99998474  evp_lu1      10.00000000       0.00000000       1.00000000  landuse1
  1 363      85.04090881  evp_lu1      10.00000000       0.00000000       1.00000000  landuse1
  1 364      85.00453186  evp_lu1      10.00000000       0.00000000       1.00000000  landuse1
  1 365      85.10514832  evp_lu1      10.00000000       0.00000000       1.00000000  landuse1
  1 366      85.04484558  evp_lu1      10.00000000       0.00000000       1.00000000  landuse1
  1 367      85.00959015  evp_lu1      10.00000000       0.00000000       1.00000000  landuse1
  1 368      85.04794312  evp_lu1      10.00000000       0.00000000       1.00000000  landuse1
  1 369      85.01365662  evp_lu1      10.00000000       0.00000000       1.00000000  landuse1
  1 381     109.93096924  evp_lu1      10.00000000       0.00000000       1.00000000  landuse1
  1 382     108.95185852  evp_lu1      10.00000000       0.00000000       1.00000000  landuse1
  1 383     107.87222290  evp_lu1      10.00000000       0.00000000       1.00000000  landuse1
  1 384     106.64492798  evp_lu1      10.00000000       0.00000000       1.00000000  landuse1
  1 385     105.34060669  evp_lu1      10.00000000       0.00000000       1.00000000  landuse1
  1 386     104.10910034  evp_lu1      10.00000000       0.00000000       1.00000000  landuse1
  1 387     102.90538025  evp_lu1      10.00000000       0.00000000       1.00000000  landuse1