# File generated by Flopy version 3.3.3 on 02/11/2021 at 12:42:17.
BEGIN options
  DIGITS  9
END options

BEGIN continuous  FILEOUT  wel_flow.csv
  luse2_1  WEL  luse2_1
  luse2_3  WEL  luse2_3
  luse3_1  WEL  luse3_1
  luse3_3  WEL  luse3_3
  new_wells  WEL  new_wells
END continuous  FILEOUT  wel_flow.csv

