# File generated by Flopy version 3.3.3 on 02/11/2021 at 12:42:17.
BEGIN options
  DIGITS  9
END options

BEGIN continuous  FILEOUT  drn_surface.csv
  surface-drain  DRN  surface-drain
END continuous  FILEOUT  drn_surface.csv

