# File generated by Flopy version 3.3.3 on 02/11/2021 at 12:42:16.
BEGIN options
  auxiliary  MULTIPLIER
  AUXMULTNAME  multiplier
  BOUNDNAMES
  TS6  FILEIN  rch.ts
  OBS6  FILEIN  model.rch.obs
END options

BEGIN dimensions
  MAXBOUND  4217
END dimensions

BEGIN period  1
  1 1  rch_lu1       1.00000000  landuse1
  1 2  rch_lu1       1.00000000  landuse1
  1 3  rch_lu1       1.00000000  landuse1
  1 4  rch_lu1       1.00000000  landuse1
  1 5  rch_lu1       1.00000000  landuse1
  1 6  rch_lu1       1.00000000  landuse1
  1 7  rch_lu1       1.00000000  landuse1
  1 8  rch_lu1       1.00000000  landuse1
  1 9  rch_lu1       1.00000000  landuse1
  1 10  rch_lu1       1.00000000  landuse1
  1 11  rch_lu1       1.00000000  landuse1
  1 12  rch_lu1       1.00000000  landuse1
  1 13  rch_lu1       1.00000000  landuse1
  1 14  rch_lu1       1.00000000  landuse1
  1 15  rch_lu1       1.00000000  landuse1
  1 16  rch_lu1       1.00000000  landuse1
  1 17  rch_lu1       1.00000000  landuse1
  1 18  rch_lu1       1.00000000  landuse1
  1 19  rch_lu1       1.00000000  landuse1
  1 20  rch_lu1       1.00000000  landuse1
  1 21  rch_lu1       1.00000000  landuse1
  1 22  rch_lu1       1.00000000  landuse1
  1 23  rch_lu1       1.00000000  landuse1
  1 24  rch_lu1       1.00000000  landuse1
  1 25  rch_lu1       1.00000000  landuse1
  1 26  rch_lu1       1.00000000  landuse1
  1 27  rch_lu1       1.00000000  landuse1
  1 28  rch_lu1       1.00000000  landuse1
  1 29  rch_lu1       1.00000000  landuse1
  1 30  rch_lu1       1.00000000  landuse1
  1 31  rch_lu1       1.00000000  landuse1
  1 32  rch_lu1       1.00000000  landuse1
  1 33  rch_lu1       1.00000000  landuse1
  1 34  rch_lu1       1.00000000  landuse1
  1 35  rch_lu1       1.00000000  landuse1
  1 36  rch_lu1       1.00000000  landuse1
  1 37  rch_lu1       1.00000000  landuse1
  1 38  rch_lu1       1.00000000  landuse1
  1 39  rch_lu1       1.00000000  landuse1
  1 40  rch_lu1       1.00000000  landuse1
  1 41  rch_lu1       1.00000000  landuse1
  1 42  rch_lu1       1.00000000  landuse1
  1 43  rch_lu1       1.00000000  landuse1
  1 44  rch_lu1       1.00000000  landuse1
  1 45  rch_lu1       1.00000000  landuse1
  1 46  rch_lu1       1.00000000  landuse1
  1 47  rch_lu1       1.00000000  landuse1
  1 48  rch_lu1       1.00000000  landuse1
  1 49  rch_lu1       1.00000000  landuse1
  1 50  rch_lu1       1.00000000  landuse1
  1 51  rch_lu1       1.00000000  landuse1
  1 52  rch_lu1       1.00000000  landuse1
  1 53  rch_lu1       1.00000000  landuse1
  1 54  rch_lu1       1.00000000  landuse1
  1 55  rch_lu1       1.00000000  landuse1
  1 56  rch_lu1       1.00000000  landuse1
  1 57  rch_lu1       1.00000000  landuse1
  1 58  rch_lu1       1.00000000  landuse1
  1 59  rch_lu1       1.00000000  landuse1
  1 60  rch_lu1       1.00000000  landuse1
  1 61  rch_lu1       1.00000000  landuse1
  1 63  rch_lu1       1.00000000  landuse1
  1 65  rch_lu1       1.00000000  landuse1
  1 66  rch_lu1       1.00000000  landuse1
  1 67  rch_lu1       1.00000000  landuse1
  1 68  rch_lu1       1.00000000  landuse1
  1 70  rch_lu1       1.00000000  landuse1
  1 72  rch_lu1       1.00000000  landuse1
  1 83  rch_lu1       1.00000000  landuse1
  1 84  rch_lu1       1.00000000  landuse1
  1 85  rch_lu1       1.00000000  landuse1
  1 86  rch_lu1       1.00000000  landuse1
  1 87  rch_lu1       1.00000000  landuse1
  1 88  rch_lu1       1.00000000  landuse1
  1 89  rch_lu1       1.00000000  landuse1
  1 90  rch_lu1       1.00000000  landuse1
  1 91  rch_lu1       1.00000000  landuse1
  1 92  rch_lu1       1.00000000  landuse1
  1 93  rch_lu1       1.00000000  landuse1
  1 94  rch_lu1       1.00000000  landuse1
  1 95  rch_lu1       1.00000000  landuse1
  1 96  rch_lu1       1.00000000  landuse1
  1 97  rch_lu1       1.00000000  landuse1
  1 98  rch_lu1       1.00000000  landuse1
  1 99  rch_lu1       1.00000000  landuse1
  1 100  rch_lu1       1.00000000  landuse1
  1 101  rch_lu1       1.00000000  landuse1
  1 102  rch_lu1       1.00000000  landuse1
  1 103  rch_lu1       1.00000000  landuse1
  1 104  rch_lu1       1.00000000  landuse1
  1 105  rch_lu1       1.00000000  landuse1
  1 106  rch_lu1       1.00000000  landuse1
  1 107  rch_lu1       1.00000000  landuse1
  1 108  rch_lu1       1.00000000  landuse1
  1 109  rch_lu1       1.00000000  landuse1
  1 110  rch_lu1       1.00000000  landuse1
  1 111  rch_lu1       1.00000000  landuse1
  1 112  rch_lu1       1.00000000  landuse1
  1 113  rch_lu1       1.00000000  landuse1
  1 114  rch_lu1       1.00000000  landuse1
  1 115  rch_lu1       1.00000000  landuse1
  1 116  rch_lu1       1.00000000  landuse1
  1 117  rch_lu1       1.00000000  landuse1
  1 118  rch_lu1       1.00000000  landuse1
  1 119  rch_lu1       1.00000000  landuse1
  1 120  rch_lu1       1.00000000  landuse1
  1 121  rch_lu1       1.00000000  landuse1
  1 122  rch_lu1       1.00000000  landuse1
  1 123  rch_lu1       1.00000000  landuse1
  1 124  rch_lu1       1.00000000  landuse1
  1 125  rch_lu1       1.00000000  landuse1
  1 126  rch_lu1       1.00000000  landuse1
  1 127  rch_lu1       1.00000000  landuse1
  1 128  rch_lu1       1.00000000  landuse1
  1 129  rch_lu1       1.00000000  landuse1
  1 130  rch_lu1       1.00000000  landuse1
  1 131  rch_lu1       1.00000000  landuse1
  1 133  rch_lu1       1.00000000  landuse1
  1 136  rch_lu1       1.00000000  landuse1
  1 141  rch_lu1       1.00000000  landuse1
  1 142  rch_lu1       1.00000000  landuse1
  1 143  rch_lu1       1.00000000  landuse1
  1 144  rch_lu1       1.00000000  landuse1
  1 145  rch_lu1       1.00000000  landuse1
  1 146  rch_lu1       1.00000000  landuse1
  1 147  rch_lu1       1.00000000  landuse1
  1 149  rch_lu1       1.00000000  landuse1
  1 159  rch_lu1       1.00000000  landuse1
  1 160  rch_lu1       1.00000000  landuse1
  1 161  rch_lu1       1.00000000  landuse1
  1 162  rch_lu1       1.00000000  landuse1
  1 163  rch_lu1       1.00000000  landuse1
  1 164  rch_lu1       1.00000000  landuse1
  1 165  rch_lu1       1.00000000  landuse1
  1 166  rch_lu1       1.00000000  landuse1
  1 167  rch_lu1       1.00000000  landuse1
  1 168  rch_lu1       1.00000000  landuse1
  1 169  rch_lu1       1.00000000  landuse1
  1 170  rch_lu1       1.00000000  landuse1
  1 171  rch_lu1       1.00000000  landuse1
  1 172  rch_lu1       1.00000000  landuse1
  1 173  rch_lu1       1.00000000  landuse1
  1 174  rch_lu1       1.00000000  landuse1
  1 175  rch_lu1       1.00000000  landuse1
  1 176  rch_lu1       1.00000000  landuse1
  1 177  rch_lu1       1.00000000  landuse1
  1 178  rch_lu1       1.00000000  landuse1
  1 179  rch_lu1       1.00000000  landuse1
  1 180  rch_lu1       1.00000000  landuse1
  1 181  rch_lu1       1.00000000  landuse1
  1 182  rch_lu1       1.00000000  landuse1
  1 183  rch_lu1       1.00000000  landuse1
  1 184  rch_lu1       1.00000000  landuse1
  1 185  rch_lu1       1.00000000  landuse1
  1 186  rch_lu1       1.00000000  landuse1
  1 187  rch_lu1       1.00000000  landuse1
  1 188  rch_lu1       1.00000000  landuse1
  1 189  rch_lu1       1.00000000  landuse1
  1 190  rch_lu1       1.00000000  landuse1
  1 191  rch_lu1       1.00000000  landuse1
  1 192  rch_lu1       1.00000000  landuse1
  1 193  rch_lu1       1.00000000  landuse1
  1 194  rch_lu1       1.00000000  landuse1
  1 195  rch_lu1       1.00000000  landuse1
  1 196  rch_lu1       1.00000000  landuse1
  1 197  rch_lu1       1.00000000  landuse1
  1 198  rch_lu1       1.00000000  landuse1
  1 199  rch_lu1       1.00000000  landuse1
  1 200  rch_lu1       1.00000000  landuse1
  1 201  rch_lu1       1.00000000  landuse1
  1 202  rch_lu1       1.00000000  landuse1
  1 203  rch_lu1       1.00000000  landuse1
  1 204  rch_lu1       1.00000000  landuse1
  1 205  rch_lu1       1.00000000  landuse1
  1 206  rch_lu1       1.00000000  landuse1
  1 207  rch_lu1       1.00000000  landuse1
  1 208  rch_lu1       1.00000000  landuse1
  1 209  rch_lu1       1.00000000  landuse1
  1 210  rch_lu1       1.00000000  landuse1
  1 214  rch_lu1       1.00000000  landuse1
  1 215  rch_lu1       1.00000000  landuse1
  1 216  rch_lu1       1.00000000  landuse1
  1 217  rch_lu1       1.00000000  landuse1
  1 223  rch_lu1       1.00000000  landuse1
  1 225  rch_lu1       1.00000000  landuse1
  1 228  rch_lu1       1.00000000  landuse1
  1 230  rch_lu1       1.00000000  landuse1
  1 238  rch_lu1       1.00000000  landuse1
  1 239  rch_lu1       1.00000000  landuse1
  1 240  rch_lu1       1.00000000  landuse1
  1 241  rch_lu1       1.00000000  landuse1
  1 242  rch_lu1       1.00000000  landuse1
  1 243  rch_lu1       1.00000000  landuse1
  1 244  rch_lu1       1.00000000  landuse1
  1 245  rch_lu1       1.00000000  landuse1
  1 246  rch_lu1       1.00000000  landuse1
  1 247  rch_lu1       1.00000000  landuse1
  1 248  rch_lu1       1.00000000  landuse1
  1 249  rch_lu1       1.00000000  landuse1
  1 250  rch_lu1       1.00000000  landuse1
  1 251  rch_lu1       1.00000000  landuse1
  1 252  rch_lu1       1.00000000  landuse1
  1 253  rch_lu1       1.00000000  landuse1
  1 254  rch_lu1       1.00000000  landuse1
  1 255  rch_lu1       1.00000000  landuse1
  1 256  rch_lu1       1.00000000  landuse1
  1 257  rch_lu1       1.00000000  landuse1
  1 258  rch_lu1       1.00000000  landuse1
  1 259  rch_lu1       1.00000000  landuse1
  1 260  rch_lu1       1.00000000  landuse1
  1 261  rch_lu1       1.00000000  landuse1
  1 262  rch_lu1       1.00000000  landuse1
  1 263  rch_lu1       1.00000000  landuse1
  1 264  rch_lu3       1.00000000  landuse3
  1 265  rch_lu3       1.00000000  landuse3
  1 266  rch_lu3       1.00000000  landuse3
  1 267  rch_lu3       1.00000000  landuse3
  1 268  rch_lu1       1.00000000  landuse1
  1 269  rch_lu1       1.00000000  landuse1
  1 270  rch_lu1       1.00000000  landuse1
  1 271  rch_lu1       1.00000000  landuse1
  1 272  rch_lu1       1.00000000  landuse1
  1 273  rch_lu1       1.00000000  landuse1
  1 274  rch_lu1       1.00000000  landuse1
  1 275  rch_lu1       1.00000000  landuse1
  1 276  rch_lu1       1.00000000  landuse1
  1 277  rch_lu1       1.00000000  landuse1
  1 278  rch_lu1       1.00000000  landuse1
  1 279  rch_lu1       1.00000000  landuse1
  1 280  rch_lu1       1.00000000  landuse1
  1 281  rch_lu1       1.00000000  landuse1
  1 282  rch_lu1       1.00000000  landuse1
  1 283  rch_lu1       1.00000000  landuse1
  1 284  rch_lu1       1.00000000  landuse1
  1 285  rch_lu1       1.00000000  landuse1
  1 286  rch_lu1       1.00000000  landuse1
  1 287  rch_lu1       1.00000000  landuse1
  1 288  rch_lu1       1.00000000  landuse1
  1 289  rch_lu1       1.00000000  landuse1
  1 290  rch_lu1       1.00000000  landuse1
  1 291  rch_lu1       1.00000000  landuse1
  1 292  rch_lu1       1.00000000  landuse1
  1 293  rch_lu1       1.00000000  landuse1
  1 294  rch_lu1       1.00000000  landuse1
  1 295  rch_lu1       1.00000000  landuse1
  1 296  rch_lu1       1.00000000  landuse1
  1 297  rch_lu1       1.00000000  landuse1
  1 311  rch_lu1       1.00000000  landuse1
  1 312  rch_lu1       1.00000000  landuse1
  1 313  rch_lu1       1.00000000  landuse1
  1 314  rch_lu1       1.00000000  landuse1
  1 315  rch_lu1       1.00000000  landuse1
  1 316  rch_lu1       1.00000000  landuse1
  1 317  rch_lu1       1.00000000  landuse1
  1 318  rch_lu1       1.00000000  landuse1
  1 319  rch_lu1       1.00000000  landuse1
  1 320  rch_lu1       1.00000000  landuse1
  1 321  rch_lu1       1.00000000  landuse1
  1 322  rch_lu1       1.00000000  landuse1
  1 323  rch_lu1       1.00000000  landuse1
  1 324  rch_lu1       1.00000000  landuse1
  1 325  rch_lu1       1.00000000  landuse1
  1 326  rch_lu1       1.00000000  landuse1
  1 327  rch_lu1       1.00000000  landuse1
  1 328  rch_lu1       1.00000000  landuse1
  1 329  rch_lu1       1.00000000  landuse1
  1 330  rch_lu1       1.00000000  landuse1
  1 331  rch_lu1       1.00000000  landuse1
  1 332  rch_lu1       1.00000000  landuse1
  1 333  rch_lu1       1.00000000  landuse1
  1 334  rch_lu1       1.00000000  landuse1
  1 335  rch_lu1       1.00000000  landuse1
  1 336  rch_lu1       1.00000000  landuse1
  1 337  rch_lu3       1.00000000  landuse3
  1 338  rch_lu3       1.00000000  landuse3
  1 339  rch_lu3       1.00000000  landuse3
  1 340  rch_lu3       1.00000000  landuse3
  1 341  rch_lu1       1.00000000  landuse1
  1 342  rch_lu1       1.00000000  landuse1
  1 343  rch_lu1       1.00000000  landuse1
  1 344  rch_lu1       1.00000000  landuse1
  1 345  rch_lu1       1.00000000  landuse1
  1 346  rch_lu1       1.00000000  landuse1
  1 347  rch_lu1       1.00000000  landuse1
  1 348  rch_lu1       1.00000000  landuse1
  1 349  rch_lu1       1.00000000  landuse1
  1 350  rch_lu1       1.00000000  landuse1
  1 351  rch_lu1       1.00000000  landuse1
  1 352  rch_lu1       1.00000000  landuse1
  1 353  rch_lu1       1.00000000  landuse1
  1 354  rch_lu1       1.00000000  landuse1
  1 355  rch_lu1       1.00000000  landuse1
  1 356  rch_lu1       1.00000000  landuse1
  1 357  rch_lu1       1.00000000  landuse1
  1 358  rch_lu1       1.00000000  landuse1
  1 359  rch_lu1       1.00000000  landuse1
  1 360  rch_lu1       1.00000000  landuse1
  1 361  rch_lu1       1.00000000  landuse1
  1 362  rch_lu1       1.00000000  landuse1
  1 363  rch_lu1       1.00000000  landuse1
  1 364  rch_lu1       1.00000000  landuse1
  1 365  rch_lu1       1.00000000  landuse1
  1 366  rch_lu1       1.00000000  landuse1
  1 367  rch_lu1       1.00000000  landuse1
  1 368  rch_lu1       1.00000000  landuse1
  1 369  rch_lu1       1.00000000  landuse1
  1 381  rch_lu1       1.00000000  landuse1
  1 382  rch_lu1       1.00000000  landuse1
  1 383  rch_lu1       1.00000000  landuse1
  1 384  rch_lu1       1.00000000  landuse1
  1 385  rch_lu1       1.00000000  landuse1
  1 386  rch_lu1       1.00000000  landuse1
  1 387  rch_lu1       1.00000000  landuse1
  1 388  rch_lu1       1.00000000  landuse1
  1 389  rch_lu1       1.00000000  landuse1
  1 390  rch_lu1       1.00000000  landuse1
  1 391  rch_lu1       1.00000000  landuse1
  1 392  rch_lu1       1.00000000  landuse1
  1 393  rch_lu1       1.00000000  landuse1
  1 394  rch_lu1       1.00000000  landuse1
  1 395  rch_lu1       1.00000000  landuse1
  1 396  rch_lu1       1.00000000  landuse1
  1 397  rch_lu1       1.00000000  landuse1
  1 398  rch_lu1       1.00000000  landuse1
  1 399  rch_lu1       1.00000000  landuse1
  1 400  rch_lu1       1.00000000  landuse1
  1 401  rch_lu1       1.00000000  landuse1
  1 402  rch_lu1       1.00000000  landuse1
  1 403  rch_lu1       1.00000000  landuse1
  1 404  rch_lu1       1.00000000  landuse1
  1 405  rch_lu1       1.00000000  landuse1
  1 406  rch_lu1       1.00000000  landuse1
  1 407  rch_lu3       1.00000000  landuse3
  1 408  rch_lu3       1.00000000  landuse3
  1 409  rch_lu3       1.00000000  landuse3
  1 410  rch_lu3       1.00000000  landuse3
  1 411  rch_lu1       1.00000000  landuse1
  1 412  rch_lu1       1.00000000  landuse1
  1 413  rch_lu1       1.00000000  landuse1
  1 414  rch_lu1       1.00000000  landuse1
  1 415  rch_lu1       1.00000000  landuse1
  1 416  rch_lu1       1.00000000  landuse1
  1 417  rch_lu1       1.00000000  landuse1
  1 418  rch_lu1       1.00000000  landuse1
  1 419  rch_lu1       1.00000000  landuse1
  1 420  rch_lu1       1.00000000  landuse1
  1 421  rch_lu1       1.00000000  landuse1
  1 422  rch_lu1       1.00000000  landuse1
  1 423  rch_lu1       1.00000000  landuse1
  1 424  rch_lu1       1.00000000  landuse1
  1 425  rch_lu1       1.00000000  landuse1
  1 426  rch_lu1       1.00000000  landuse1
  1 427  rch_lu1       1.00000000  landuse1
  1 428  rch_lu1       1.00000000  landuse1
  1 429  rch_lu1       1.00000000  landuse1
  1 430  rch_lu1       1.00000000  landuse1
  1 431  rch_lu1       1.00000000  landuse1
  1 433  rch_lu1       1.00000000  landuse1
  1 436  rch_lu1       1.00000000  landuse1
  1 438  rch_lu1       1.00000000  landuse1
  1 442  rch_lu1       1.00000000  landuse1
  1 444  rch_lu1       1.00000000  landuse1
  1 445  rch_lu1       1.00000000  landuse1
  1 447  rch_lu1       1.00000000  landuse1
  1 448  rch_lu1       1.00000000  landuse1
  1 449  rch_lu1       1.00000000  landuse1
  1 450  rch_lu1       1.00000000  landuse1
  1 454  rch_lu1       1.00000000  landuse1
  1 455  rch_lu1       1.00000000  landuse1
  1 456  rch_lu1       1.00000000  landuse1
  1 457  rch_lu1       1.00000000  landuse1
  1 458  rch_lu1       1.00000000  landuse1
  1 459  rch_lu1       1.00000000  landuse1
  1 460  rch_lu1       1.00000000  landuse1
  1 461  rch_lu1       1.00000000  landuse1
  1 462  rch_lu1       1.00000000  landuse1
  1 463  rch_lu1       1.00000000  landuse1
  1 464  rch_lu1       1.00000000  landuse1
  1 465  rch_lu1       1.00000000  landuse1
  1 466  rch_lu1       1.00000000  landuse1
  1 467  rch_lu1       1.00000000  landuse1
  1 468  rch_lu1       1.00000000  landuse1
  1 469  rch_lu1       1.00000000  landuse1
  1 470  rch_lu1       1.00000000  landuse1
  1 471  rch_lu1       1.00000000  landuse1
  1 472  rch_lu1       1.00000000  landuse1
  1 473  rch_lu1       1.00000000  landuse1
  1 474  rch_lu1       1.00000000  landuse1
  1 475  rch_lu1       1.00000000  landuse1
  1 476  rch_lu1       1.00000000  landuse1
  1 477  rch_lu1       1.00000000  landuse1
  1 478  rch_lu1       1.00000000  landuse1
  1 479  rch_lu1       1.00000000  landuse1
  1 480  rch_lu3       1.00000000  landuse3
  1 481  rch_lu3       1.00000000  landuse3
  1 482  rch_lu3       1.00000000  landuse3
  1 483  rch_lu3       1.00000000  landuse3
  1 484  rch_lu1       1.00000000  landuse1
  1 485  rch_lu1       1.00000000  landuse1
  1 486  rch_lu1       1.00000000  landuse1
  1 487  rch_lu1       1.00000000  landuse1
  1 488  rch_lu1       1.00000000  landuse1
  1 489  rch_lu1       1.00000000  landuse1
  1 490  rch_lu1       1.00000000  landuse1
  1 491  rch_lu1       1.00000000  landuse1
  1 492  rch_lu1       1.00000000  landuse1
  1 493  rch_lu1       1.00000000  landuse1
  1 494  rch_lu1       1.00000000  landuse1
  1 495  rch_lu1       1.00000000  landuse1
  1 496  rch_lu1       1.00000000  landuse1
  1 497  rch_lu1       1.00000000  landuse1
  1 498  rch_lu1       1.00000000  landuse1
  1 499  rch_lu1       1.00000000  landuse1
  1 500  rch_lu1       1.00000000  landuse1
  1 501  rch_lu1       1.00000000  landuse1
  1 503  rch_lu1       1.00000000  landuse1
  1 504  rch_lu1       1.00000000  landuse1
  1 505  rch_lu1       1.00000000  landuse1
  1 506  rch_lu1       1.00000000  landuse1
  1 507  rch_lu1       1.00000000  landuse1
  1 509  rch_lu1       1.00000000  landuse1
  1 515  rch_lu1       1.00000000  landuse1
  1 516  rch_lu1       1.00000000  landuse1
  1 518  rch_lu1       1.00000000  landuse1
  1 520  rch_lu1       1.00000000  landuse1
  1 521  rch_lu1       1.00000000  landuse1
  1 523  rch_lu1       1.00000000  landuse1
  1 524  rch_lu1       1.00000000  landuse1
  1 533  rch_lu1       1.00000000  landuse1
  1 534  rch_lu1       1.00000000  landuse1
  1 535  rch_lu1       1.00000000  landuse1
  1 536  rch_lu1       1.00000000  landuse1
  1 537  rch_lu1       1.00000000  landuse1
  1 538  rch_lu1       1.00000000  landuse1
  1 539  rch_lu1       1.00000000  landuse1
  1 540  rch_lu1       1.00000000  landuse1
  1 541  rch_lu1       1.00000000  landuse1
  1 542  rch_lu1       1.00000000  landuse1
  1 543  rch_lu1       1.00000000  landuse1
  1 544  rch_lu1       1.00000000  landuse1
  1 545  rch_lu1       1.00000000  landuse1
  1 546  rch_lu1       1.00000000  landuse1
  1 547  rch_lu1       1.00000000  landuse1
  1 548  rch_lu1       1.00000000  landuse1
  1 549  rch_lu1       1.00000000  landuse1
  1 550  rch_lu1       1.00000000  landuse1
  1 551  rch_lu1       1.00000000  landuse1
  1 552  rch_lu1       1.00000000  landuse1
  1 553  rch_lu1       1.00000000  landuse1
  1 554  rch_lu1       1.00000000  landuse1
  1 555  rch_lu1       1.00000000  landuse1
  1 556  rch_lu1       1.00000000  landuse1
  1 557  rch_lu1       1.00000000  landuse1
  1 558  rch_lu1       1.00000000  landuse1
  1 559  rch_lu3       1.00000000  landuse3
  1 560  rch_lu3       1.00000000  landuse3
  1 561  rch_lu3       1.00000000  landuse3
  1 562  rch_lu3       1.00000000  landuse3
  1 563  rch_lu3       1.00000000  landuse3
  1 564  rch_lu3       1.00000000  landuse3
  1 565  rch_lu3       1.00000000  landuse3
  1 566  rch_lu3       1.00000000  landuse3
  1 567  rch_lu1       1.00000000  landuse1
  1 568  rch_lu1       1.00000000  landuse1
  1 569  rch_lu1       1.00000000  landuse1
  1 570  rch_lu1       1.00000000  landuse1
  1 571  rch_lu1       1.00000000  landuse1
  1 572  rch_lu1       1.00000000  landuse1
  1 573  rch_lu1       1.00000000  landuse1
  1 574  rch_lu1       1.00000000  landuse1
  1 575  rch_lu1       1.00000000  landuse1
  1 576  rch_lu1       1.00000000  landuse1
  1 577  rch_lu1       1.00000000  landuse1
  1 578  rch_lu1       1.00000000  landuse1
  1 579  rch_lu1       1.00000000  landuse1
  1 580  rch_lu1       1.00000000  landuse1
  1 581  rch_lu1       1.00000000  landuse1
  1 582  rch_lu1       1.00000000  landuse1
  1 583  rch_lu1       1.00000000  landuse1
  1 588  rch_lu1       1.00000000  landuse1
  1 591  rch_lu1       1.00000000  landuse1
  1 592  rch_lu1       1.00000000  landuse1
  1 593  rch_lu1       1.00000000  landuse1
  1 594  rch_lu1       1.00000000  landuse1
  1 595  rch_lu1       1.00000000  landuse1
  1 597  rch_lu1       1.00000000  landuse1
  1 600  rch_lu1       1.00000000  landuse1
  1 602  rch_lu1       1.00000000  landuse1
  1 609  rch_lu1       1.00000000  landuse1
  1 610  rch_lu1       1.00000000  landuse1
  1 611  rch_lu1       1.00000000  landuse1
  1 612  rch_lu1       1.00000000  landuse1
  1 613  rch_lu1       1.00000000  landuse1
  1 614  rch_lu1       1.00000000  landuse1
  1 615  rch_lu1       1.00000000  landuse1
  1 616  rch_lu1       1.00000000  landuse1
  1 617  rch_lu1       1.00000000  landuse1
  1 618  rch_lu1       1.00000000  landuse1
  1 619  rch_lu1       1.00000000  landuse1
  1 620  rch_lu1       1.00000000  landuse1
  1 621  rch_lu1       1.00000000  landuse1
  1 622  rch_lu1       1.00000000  landuse1
  1 623  rch_lu1       1.00000000  landuse1
  1 624  rch_lu1       1.00000000  landuse1
  1 625  rch_lu1       1.00000000  landuse1
  1 626  rch_lu1       1.00000000  landuse1
  1 627  rch_lu1       1.00000000  landuse1
  1 628  rch_lu1       1.00000000  landuse1
  1 629  rch_lu1       1.00000000  landuse1
  1 630  rch_lu1       1.00000000  landuse1
  1 631  rch_lu1       1.00000000  landuse1
  1 632  rch_lu1       1.00000000  landuse1
  1 633  rch_lu1       1.00000000  landuse1
  1 634  rch_lu1       1.00000000  landuse1
  1 635  rch_lu3       1.00000000  landuse3
  1 636  rch_lu3       1.00000000  landuse3
  1 637  rch_lu3       1.00000000  landuse3
  1 638  rch_lu3       1.00000000  landuse3
  1 639  rch_lu3       1.00000000  landuse3
  1 640  rch_lu3       1.00000000  landuse3
  1 641  rch_lu3       1.00000000  landuse3
  1 642  rch_lu3       1.00000000  landuse3
  1 643  rch_lu1       1.00000000  landuse1
  1 644  rch_lu1       1.00000000  landuse1
  1 645  rch_lu1       1.00000000  landuse1
  1 646  rch_lu1       1.00000000  landuse1
  1 647  rch_lu1       1.00000000  landuse1
  1 648  rch_lu1       1.00000000  landuse1
  1 649  rch_lu1       1.00000000  landuse1
  1 650  rch_lu1       1.00000000  landuse1
  1 651  rch_lu1       1.00000000  landuse1
  1 652  rch_lu1       1.00000000  landuse1
  1 653  rch_lu1       1.00000000  landuse1
  1 654  rch_lu1       1.00000000  landuse1
  1 655  rch_lu1       1.00000000  landuse1
  1 656  rch_lu1       1.00000000  landuse1
  1 657  rch_lu1       1.00000000  landuse1
  1 659  rch_lu1       1.00000000  landuse1
  1 660  rch_lu1       1.00000000  landuse1
  1 661  rch_lu1       1.00000000  landuse1
  1 662  rch_lu1       1.00000000  landuse1
  1 664  rch_lu1       1.00000000  landuse1
  1 665  rch_lu1       1.00000000  landuse1
  1 666  rch_lu1       1.00000000  landuse1
  1 667  rch_lu1       1.00000000  landuse1
  1 668  rch_lu1       1.00000000  landuse1
  1 669  rch_lu1       1.00000000  landuse1
  1 670  rch_lu1       1.00000000  landuse1
  1 671  rch_lu1       1.00000000  landuse1
  1 673  rch_lu1       1.00000000  landuse1
  1 674  rch_lu1       1.00000000  landuse1
  1 675  rch_lu1       1.00000000  landuse1
  1 676  rch_lu1       1.00000000  landuse1
  1 682  rch_lu1       1.00000000  landuse1
  1 683  rch_lu1       1.00000000  landuse1
  1 684  rch_lu1       1.00000000  landuse1
  1 685  rch_lu1       1.00000000  landuse1
  1 686  rch_lu1       1.00000000  landuse1
  1 687  rch_lu1       1.00000000  landuse1
  1 688  rch_lu1       1.00000000  landuse1
  1 689  rch_lu1       1.00000000  landuse1
  1 690  rch_lu1       1.00000000  landuse1
  1 691  rch_lu1       1.00000000  landuse1
  1 692  rch_lu1       1.00000000  landuse1
  1 693  rch_lu1       1.00000000  landuse1
  1 694  rch_lu1       1.00000000  landuse1
  1 695  rch_lu1       1.00000000  landuse1
  1 696  rch_lu1       1.00000000  landuse1
  1 697  rch_lu1       1.00000000  landuse1
  1 698  rch_lu1       1.00000000  landuse1
  1 699  rch_lu1       1.00000000  landuse1
  1 700  rch_lu1       1.00000000  landuse1
  1 701  rch_lu1       1.00000000  landuse1
  1 702  rch_lu1       1.00000000  landuse1
  1 703  rch_lu1       1.00000000  landuse1
  1 704  rch_lu1       1.00000000  landuse1
  1 705  rch_lu1       1.00000000  landuse1
  1 706  rch_lu1       1.00000000  landuse1
  1 707  rch_lu1       1.00000000  landuse1
  1 708  rch_lu3       1.00000000  landuse3
  1 709  rch_lu3       1.00000000  landuse3
  1 710  rch_lu3       1.00000000  landuse3
  1 711  rch_lu3       1.00000000  landuse3
  1 712  rch_lu3       1.00000000  landuse3
  1 713  rch_lu3       1.00000000  landuse3
  1 714  rch_lu3       1.00000000  landuse3
  1 715  rch_lu3       1.00000000  landuse3
  1 716  rch_lu1       1.00000000  landuse1
  1 717  rch_lu1       1.00000000  landuse1
  1 718  rch_lu1       1.00000000  landuse1
  1 719  rch_lu1       1.00000000  landuse1
  1 720  rch_lu1       1.00000000  landuse1
  1 721  rch_lu1       1.00000000  landuse1
  1 722  rch_lu1       1.00000000  landuse1
  1 723  rch_lu1       1.00000000  landuse1
  1 724  rch_lu1       1.00000000  landuse1
  1 725  rch_lu1       1.00000000  landuse1
  1 726  rch_lu1       1.00000000  landuse1
  1 727  rch_lu1       1.00000000  landuse1
  1 728  rch_lu1       1.00000000  landuse1
  1 729  rch_lu1       1.00000000  landuse1
  1 730  rch_lu1       1.00000000  landuse1
  1 731  rch_lu1       1.00000000  landuse1
  1 733  rch_lu1       1.00000000  landuse1
  1 735  rch_lu1       1.00000000  landuse1
  1 736  rch_lu1       1.00000000  landuse1
  1 738  rch_lu1       1.00000000  landuse1
  1 740  rch_lu1       1.00000000  landuse1
  1 741  rch_lu1       1.00000000  landuse1
  1 742  rch_lu1       1.00000000  landuse1
  1 744  rch_lu1       1.00000000  landuse1
  1 746  rch_lu1       1.00000000  landuse1
  1 747  rch_lu1       1.00000000  landuse1
  1 749  rch_lu1       1.00000000  landuse1
  1 761  rch_lu1       1.00000000  landuse1
  1 762  rch_lu1       1.00000000  landuse1
  1 763  rch_lu1       1.00000000  landuse1
  1 764  rch_lu1       1.00000000  landuse1
  1 765  rch_lu1       1.00000000  landuse1
  1 766  rch_lu1       1.00000000  landuse1
  1 767  rch_lu1       1.00000000  landuse1
  1 768  rch_lu1       1.00000000  landuse1
  1 769  rch_lu1       1.00000000  landuse1
  1 770  rch_lu1       1.00000000  landuse1
  1 771  rch_lu1       1.00000000  landuse1
  1 772  rch_lu1       1.00000000  landuse1
  1 773  rch_lu1       1.00000000  landuse1
  1 774  rch_lu1       1.00000000  landuse1
  1 775  rch_lu1       1.00000000  landuse1
  1 776  rch_lu1       1.00000000  landuse1
  1 777  rch_lu1       1.00000000  landuse1
  1 778  rch_lu1       1.00000000  landuse1
  1 779  rch_lu1       1.00000000  landuse1
  1 780  rch_lu1       1.00000000  landuse1
  1 781  rch_lu1       1.00000000  landuse1
  1 782  rch_lu1       1.00000000  landuse1
  1 783  rch_lu1       1.00000000  landuse1
  1 784  rch_lu1       1.00000000  landuse1
  1 785  rch_lu1       1.00000000  landuse1
  1 786  rch_lu1       1.00000000  landuse1
  1 787  rch_lu1       1.00000000  landuse1
  1 788  rch_lu1       1.00000000  landuse1
  1 789  rch_lu1       1.00000000  landuse1
  1 790  rch_lu3       1.00000000  landuse3
  1 791  rch_lu3       1.00000000  landuse3
  1 792  rch_lu3       1.00000000  landuse3
  1 793  rch_lu3       1.00000000  landuse3
  1 794  rch_lu3       1.00000000  landuse3
  1 795  rch_lu1       1.00000000  landuse1
  1 796  rch_lu1       1.00000000  landuse1
  1 797  rch_lu1       1.00000000  landuse1
  1 798  rch_lu1       1.00000000  landuse1
  1 799  rch_lu1       1.00000000  landuse1
  1 800  rch_lu1       1.00000000  landuse1
  1 801  rch_lu1       1.00000000  landuse1
  1 802  rch_lu1       1.00000000  landuse1
  1 803  rch_lu1       1.00000000  landuse1
  1 804  rch_lu1       1.00000000  landuse1
  1 805  rch_lu1       1.00000000  landuse1
  1 806  rch_lu1       1.00000000  landuse1
  1 807  rch_lu1       1.00000000  landuse1
  1 809  rch_lu1       1.00000000  landuse1
  1 811  rch_lu1       1.00000000  landuse1
  1 812  rch_lu1       1.00000000  landuse1
  1 813  rch_lu1       1.00000000  landuse1
  1 814  rch_lu1       1.00000000  landuse1
  1 815  rch_lu1       1.00000000  landuse1
  1 819  rch_lu1       1.00000000  landuse1
  1 820  rch_lu1       1.00000000  landuse1
  1 821  rch_lu1       1.00000000  landuse1
  1 822  rch_lu1       1.00000000  landuse1
  1 823  rch_lu1       1.00000000  landuse1
  1 824  rch_lu1       1.00000000  landuse1
  1 825  rch_lu1       1.00000000  landuse1
  1 826  rch_lu1       1.00000000  landuse1
  1 828  rch_lu1       1.00000000  landuse1
  1 829  rch_lu1       1.00000000  landuse1