# File generated by Flopy version 3.3.3 on 02/11/2021 at 12:42:17.
BEGIN options
  DIGITS  9
END options

BEGIN continuous  FILEOUT  stream_flow.csv
  trib  RIV  trib
  main  RIV  main
END continuous  FILEOUT  stream_flow.csv

BEGIN continuous  FILEOUT  stream_flow-pred.csv
  p-trib  RIV  trib
  p-main  RIV  main
END continuous  FILEOUT  stream_flow-pred.csv

