# File generated by Flopy version 3.3.3 on 05/04/2021 at 09:22:55.
BEGIN options
  CONTINUE
END options

BEGIN timing
  TDIS6  gmdsi_tut.tdis
END timing

BEGIN models
  gwf6  model.nam  model
END models

BEGIN exchanges
END exchanges

BEGIN solutiongroup  1
  ims6  gmdsi_tut.ims  model
END solutiongroup  1

