# File generated by Flopy version 3.3.3 on 05/04/2021 at 09:22:56.
BEGIN options
  DIGITS  9
END options

BEGIN continuous  FILEOUT  .\obs\drn_surface.csv
  surface-drain  DRN  surface-drain
END continuous  FILEOUT  .\obs\drn_surface.csv

