# File generated by Flopy version 3.3.3 on 05/04/2021 at 09:22:56.
BEGIN griddata
  strt  LAYERED
    INTERNAL  FACTOR  1.0
         113.80310059     112.27372742     110.71407318     109.16827393     107.62925720     106.08296204     104.55234528     103.04358673     101.48725891     100.02814484      98.61745453      97.24736023      96.50747681      95.88565826      95.33622742      94.81226349      94.32510376      93.87625122      93.43533325      93.00566101
          92.52083588      92.08876038      91.65180969      91.20829010      90.77410126      90.33278656      89.89356995      89.46178436      89.03141785      88.61634827      88.20399475      87.80307770      87.39691162      86.99667358      86.59992981      86.19165802      85.81326294      85.57397461      85.36214447      85.50852203
          85.30529785      85.20563507      85.10896301      85.06098175      85.02774048      85.04395294      85.01058960      85.07638550      85.02540588      84.99718475      85.01002502      84.99253082      85.19828033      85.11801147      85.17005157      85.08720398      85.07130432      85.03559875      85.05580902      85.01998901
          84.99834442      84.99371338      85.03752899      85.00154114      85.02375031      84.99586487      84.99841309      84.99310303     112.98202515     111.48103333     109.95848083     108.46534729     106.99819946     105.53603363     104.06297302     102.61985016     101.15249634      99.76177216      98.41593933      97.10972595
          96.41988373      95.79266357      95.21646881      94.70619202      94.23918915      93.78970337      93.35863495      92.93443298      92.46823883      92.02281952      91.57955170      91.13442230      90.68785858      90.24005127      89.79808044      89.35679626      88.92984772      88.50751495      88.08938599      87.67573547
          87.26412201      86.86235046      86.46697998      86.07008362      85.67948151      85.44287872      85.25106049      85.38083649      85.20590973      85.14214325      85.05881500      85.11128235      85.05389404      85.01567078      85.04119110      85.00103760      85.00939941      84.99846649      84.99344635      85.08860779
          85.02650452      84.99596405      85.01345062      84.99240112      85.06043243      84.99948883      84.99585724     112.18534851     110.74909210     109.30266571     107.87622070     106.47556305     105.08781433     103.70140076     102.31846619     100.92201233      99.57052612      98.26863098      97.01639557      96.35144043
          95.74122620      95.16016388      94.63951111      94.17002106      93.72278595      93.28500366      92.84762573      92.39864349      91.94833374      91.50085449      91.05475616      90.60049438      90.14984894      89.70918274      89.26696777      88.83192444      88.40230560      87.97769165      87.55792999      87.14356995
          86.73834229      86.35130310      85.96304321      85.58641052      85.33296967      85.20906830      85.11779785      85.18603516      85.09342194      85.29290771      85.16693115      85.07441711      85.14646912      85.05390930      85.06151581      85.01994324      85.04832458      85.00672150      84.99234772      85.03462982
          84.99811554      85.02514648      84.99582672      85.01567841      85.00621033      84.99887848      84.99676514     111.42344666     110.12893677     108.83815002     107.47351837     106.09843445     104.75895691     103.44880676     102.13883209     100.77497101      99.44651794      98.17344666      96.98578644      96.33572388
          95.72084045      95.13026428      94.59160614      94.12721252      93.67344666      93.22515106      92.77829742      92.32714081      91.87427521      91.42140961      90.96707153      90.51487732      90.06810760      89.62337494      89.18014526      88.74247742      88.30950165      87.88209534      87.46041870      87.04435730
          86.63764954      86.25954437      85.88483429      85.51808167      85.26090240      85.13150024      85.06302643      85.02061462      85.05814362      85.01582336      85.12055969      85.05239868      85.01023865      85.04761505      85.00549316      85.23661041      85.11102295      85.04287720      85.00074768      85.03814697
          84.99921417      85.10415649      85.03539276      84.99900818      85.03559875      84.99908447      84.99555969     110.68889618     109.58599854     108.45707703     107.15776062     105.78839111     104.47446442     103.20558929     101.93577576     100.63488770      99.34629059      98.10302734      97.01638031      96.36405182
          95.75767517      95.17926025      94.63629913      94.14197540      93.66907501      93.20478058      92.74083710      92.27748871      91.81589508      91.35620880      90.89779663      90.44274139      89.99195099      89.54432678      89.10050964      88.66190338      88.22914886      87.80281067      87.38574219      86.97217560
          86.57279968      86.19632721      85.83145142      85.47674561      85.23138428      85.10358429      85.03574371      84.99914551      85.03585052      84.99922180      85.10233307      85.03591156      84.99930573      85.03588867      84.99937439      85.22074127      85.10123444      85.03721619      84.99998474      85.04090881
          85.00453186      85.10514832      85.04484558      85.00959015      85.04794312      85.01365662     109.93096924     108.95185852     107.87222290     106.64492798     105.34060669     104.10910034     102.90538025     101.70005798     100.48905182      99.29713440      98.17536926      97.18464661      96.43788910      95.82556152
          95.27218628      94.73360443      94.21554565      93.71148682      93.22171021      92.73867035      92.25969696      91.78558350      91.31574249      90.84963989      90.38821411      89.93162537      89.47972107      89.03350067      88.59494019      88.16187286      87.73799133      87.32389832      86.92108154      86.53041077
          86.15549469      85.78879547      85.43958282      85.21584320      85.10797119      85.05084229      85.01748657      85.05364227      85.02113342      85.11116028      85.04383087      85.22101593      85.11780548      85.05299377      85.12602997      85.06288147      84.99732971      84.99775696      84.99914551      85.00154114
          85.00701141      85.01227570      84.99625397      85.01824951      84.99758148      85.02326965      84.99880219     109.14330292     108.21234894     107.16330719     106.00472260     104.77957153     103.66646576     102.56288147     101.45570374     100.35677338      99.29191589      98.29703522      97.42842102      96.69345856
          96.03871155      95.43296051      94.85887146      94.30977631      93.77912903      93.26426697      92.75999451      92.26388550      91.77517700      91.29320526      90.81724548      90.35138702      89.88824463      89.43188477      88.98086548      88.53709412      88.10533905      87.68410492      87.27472687      86.88111877
          86.50215149      86.14150238      85.78467560      85.45606995      85.23631287      85.13428497      85.07245636      85.14540863      85.08409882      85.25769043      85.13379669      85.02861786      85.00189972      85.03421021      85.00768280      85.04069519      85.01431274      85.04622650      85.01993561      84.99443054
          84.99627686      85.04133606      84.99835968      85.00124359      85.05322266      85.00773621      85.01325226      84.99512482     108.32672882     107.43187714     106.43190765     105.37379456     104.26602936     103.23082733     102.20525360     101.19592285     100.21125793      99.26534271      98.39877319      97.63790894
          96.95926666      96.26157379      95.60997772      94.99851990      94.41821289      93.86056519      93.32191467      92.79650879      92.28287506      91.77953339      91.28543854      90.80077362      90.32929230      89.85890961      89.39508057      88.93766785      88.49140930      88.05954742      87.64086151      87.23625946
          86.84832764      86.48050690      86.13267517      85.80136108      85.49411011      85.27921295      85.15589905      85.29862213      85.17610168      85.06404877      85.01872253      84.99736023      85.02413940      84.99972534      85.07549286      85.03038788      85.00569153      85.03577423      85.01091003      84.99347687
          85.08540344      85.03031158      85.09530640      85.04035187      84.99569702      84.99801636      85.00156403      85.00621033     107.49858856     106.62520599     105.69018555     104.73562622     103.76924133     102.80665588     101.84186554     100.91960144     100.04238129      99.21023560      98.44434357      97.74757385
          97.10316467      96.42867279      95.76998901      95.13483429      94.52787018      93.94606781      93.38488007      92.84088135      92.31134796      91.79415131      91.28833008      90.79383087      90.31066132      89.83331299      89.36293793      88.89978027      88.45213318      88.01940918      87.60120392      87.19914246
          86.81668091      86.45706940      86.12074280      85.80419922      85.51517487      85.31341553      85.19281769      85.32358551      85.20468140      85.10376740      85.04922485      85.11186218      85.05705261      85.01078796      84.99216461      85.01500702      84.99444580      85.01892090      84.99699402      85.02223206
          84.99911499      85.11769867      85.06330109      85.12377167      85.06986237      85.02549744      85.00196838      85.02871704      85.00528717      85.03244781      85.00912476      85.03504944      85.01139069     106.66654205     105.80539703     104.91283417     104.05593109     103.22348022     102.37014771     101.49011230
         100.62298584      99.83058167      99.09233093      98.41577148      97.77646637      97.17373657      96.53640747      95.88741302      95.24520111      94.62169647      94.02291870      93.44588470      92.88715363      92.34420013      91.81483459      91.29799652      90.79188538      90.29704285      89.81283569      89.33751678
          88.87012482      88.41898346      87.98372650      87.56418610      87.16273499      86.78210449      86.42716980      86.09989166      85.79279327      85.51885223      85.32961273      85.21377563      85.33234406      85.21562195      85.12899017      85.07415009      85.13040924      85.07629395      85.03650665      85.01292419
          85.03824615      85.01454163      84.99060822      84.99180603      85.02851105      84.98844147      84.99002838      85.10733032      85.03158569      84.99165344      84.99107361      85.02947998      84.98980713      84.98870850     105.83219147     104.98499298     104.13229370     103.38012695     102.67658234     101.93325806
         101.14149475     100.29021454      99.60350037      98.93952179      98.33899689      97.76280212      97.21561432      96.61891937      95.97688293      95.32938385      94.69470978      94.08615112      93.49952698      92.93051910      92.37725067      91.83863831      91.31172943      90.79545593      90.29074097      89.79877472
          89.31705475      88.84609985      88.38979340      87.95005798      87.52690887      87.12377167      86.74003601      86.38893127      86.06464386      85.76113129      85.49933624      85.32502747      85.21051025      85.31013489      85.19433594      85.12805176      85.07474518      85.12525177      85.07205200      85.02745819
          84.98751831      84.98638153      85.03724670      85.01433563      85.03453064      85.01129913      84.98474884      85.11752319      85.06442261      85.10890961      85.05600739      85.03073883      85.00753021      85.02693176      85.00375366      85.02246857      84.99913025      85.01864624      84.99410248     104.99069977
         104.16683197     103.38169861     102.74880219     102.13494873     101.51171875     100.84281158     100.11966705      99.40366364      98.74705505      98.22620392      97.71643829      97.23046875      96.67837524      96.02324677      95.37248993      94.74069977      94.13208771      93.54325104      92.96902466      92.40969849
          91.86259460      91.32695770      90.80260468      90.28874969      89.78741455      89.30036163      88.82376099      88.36170959      87.91543579      87.48699188      87.08097839      86.69378662      86.34095001      86.01592255      85.72514343      85.45533752      85.28643036      85.17305756      85.25772095      85.14444733
          85.09951782      85.04685974      85.08570099      85.03277588      85.01498413      84.98899078      85.00847626      85.00079346      84.99279785      85.07253265      85.03489685      85.01091003      85.02816772      85.00404358      85.05540466      85.01876068      84.99470520      85.01016235      84.98374176      84.98451233
         103.96611786     103.23181915     102.63002014     102.07698822     101.52248383     101.04122925     100.54038239      99.91788483      99.18788910      98.50912476      98.09275818      97.60897827      97.16021729      96.62597656      95.99905396      95.37274933      94.76078033      94.16781616      93.58560181      93.00901794
          92.43728638      91.88204956      91.34195709      90.81034851      90.28899384      89.77824402      89.28276825      88.80218506      88.33358765      87.87953186      87.44676208      87.03359222      86.64167786      86.28105164      85.95050049      85.65590668      85.38012695      85.21783447      85.14566803      85.08850098
          85.12249756      85.06710815      85.17594910      85.10209656      85.04643250      85.07907867      85.04129028      85.01613617      85.03042603      85.00524139      85.03670502      85.00142670      84.99061584      85.03413391      85.00981903      85.02516937      85.00078583      84.97730255      85.01472473      84.98832703
          85.00411987      84.98928070     102.84332275     102.32278442     101.81417084     101.28971863     100.70732117     100.33251190     100.12046051      99.57142639      98.93379974      98.33677673      97.97740936      97.53630066      97.02188873      96.47108459      95.91466522      95.33662415      94.75363159      94.17865753
          93.59914398      93.03627777      92.46979523      91.90525818      91.36428070      90.82098389      90.29450226      89.77317047      89.27032471      88.79445648      88.30595398      87.84358978      87.41056061      86.98980713      86.58258820      86.20964813      85.86941528      85.56123352      85.38118744      85.24941254
          85.32829285      85.19766235      85.17033386      85.11003876      85.14434052      85.08379364      85.05669403      85.01941681      84.99264526      85.00796509      84.97843170      85.04959869      85.02344513      85.03724670      85.01105499      84.99196625      84.97625732      85.11962891      85.05883789      85.09108734
          85.05098724      85.02366638      85.03742218      85.01008606      85.02470398      84.99806213      85.01198578      84.98171997      84.99609375      84.97873688     101.65824127     101.26963806     100.84340668     100.37960052      99.43351746      98.77349854      99.24078369      98.43797302      98.42559814      97.94252014
          97.85790253      97.43561554      96.82814789      96.33567047      95.81727600      95.31001282      94.76838684      94.19069672      93.62821960      93.05685425      92.52925110      91.98313904      91.41267395      90.83609009      90.32399750      89.80058289      89.29626465      88.80029297      88.27931213      87.80797577
          87.37860107      86.95211029      86.53027344      86.12858582      85.77880859      85.46118927      85.27404022      85.18833160      85.12232971      85.15845490      85.09207916      85.21911621      85.13010406      85.06311035      85.09822845      85.05352783      85.02311707      85.03831482      85.00781250      85.06370544
          85.02365112      84.99524689      85.00968170      84.97730255      85.05475616      85.02594757      85.04045105      85.01159668      84.99119568      84.97276306      85.02587128      84.99610138      85.01101685      84.97693634      84.99156952      84.97167969     100.40148163     100.03144836      99.68096924      99.29030609
          97.53355408      96.47636414      96.02787018      94.49668884      93.65401459      95.88103485      95.89618683      93.12464905      93.05210876      95.89232635      96.05588531      93.46270752      94.04302216      95.91799164      96.91468811      97.59977722      97.16950989      96.66698456      96.28007507      95.80022430
          95.34951019      94.74507141      94.12678528      93.71369171      93.12059784      92.66527557      92.12234497      91.49131775      90.86058044      90.38135529      89.91080475      89.38269043      88.81816864      88.25418854      87.77207947      87.35962677      86.92183685      86.47510529      86.04323578      85.68517303
          85.46173859      85.30581665      85.41035461      85.25061798      85.20862579      85.13400269      85.17696381      85.10118866      85.06790924      85.02283478      84.98995972      85.00720978      84.96937561      85.05857849      85.02595520      85.04281616      85.01000214      84.98587799      85.14627838      85.06961823
          85.11344910      85.06040192      85.02505493      85.04443359      85.00885773      85.02671814      84.99201965      85.01026154      84.98748016      84.96546936     100.30426788      99.04130554      98.50503540      97.25372314      95.87590790      94.01862335      94.94590759      92.99710846      93.32543945      92.54204559
          92.19532013      91.36552429      91.86560059      91.39138031      91.06446075      90.67972565      90.50360107      90.09767151      90.39682007      90.15467072      90.00456238      90.19697571      91.27862549      90.74430084      90.34814453      90.20024872      90.13773346      91.47275543      91.06029510      89.94460297
          90.30284882      90.54943085      90.93925476      91.13317871      91.83699036      92.57387543      90.94783783      90.85116577      89.90486145      89.90097046      90.37542725      90.53751373      89.87533569      89.80366516      90.52775574      90.44567871      90.88609314      91.10939789      89.73322296      89.66432190
          90.36314392      90.27869415      89.90224457      90.11830902      89.98019409      89.72453308      91.43473053      91.44158173      92.85346222      92.78292084      91.23748779      90.71931458      92.48425293      91.91857147      91.46871185      91.84523773      90.32411194      90.52104187      89.68834686      89.89749908
          90.65914154      92.31254578      92.78610992      91.19239044      91.73078918      90.05116272      89.75408173      90.61855316      90.28456116      89.69688416      89.99455261      89.87142944      89.51177979      91.31833649      90.57482147      90.27938080      90.55278015      89.75673676      90.04586029      90.75820160
          89.77751923      89.45587158      90.30496216      89.93845367      89.79930878      90.08317566      89.50132751      89.59467316      92.89405823      93.44110107      91.28064728      91.63300323      90.17951202      90.48361969      91.81668854      91.83230591      90.57589722      90.50370789      93.94432831      94.98199463
          92.01495361      92.33304596      90.60933685      90.81447601      92.71771240      93.42900848      91.23072815      92.15357971      96.02975464      96.23243713      93.73598480      94.74601746      96.65773010      96.23888397      96.01869965      95.61292267      95.31792450      93.99549866      93.59555817      93.84308624
          93.28366852      92.81414032      92.19101715      91.57460022      90.90570068      90.46252441      90.02920532      89.46037292      88.74817657      88.23631287      87.74588776      87.35633087      86.89563751      86.41066742      85.96001434      85.59746552      85.35810089      85.24456787      85.15903473      85.21352386
          85.12445831      85.30706787      85.18532562      85.09371185      85.15307617      85.08818817      85.04566193      85.07163239      85.02864075      85.08164215      85.02807617      84.98962402      85.01132202      84.96657562      85.07333374      85.03486633      85.05628967      85.01749420      84.98799896      84.96348572
          85.04035950      85.00071716      85.02392578      84.97743225      85.00423431      84.98064423     101.33321381      98.27027130      97.74790192      96.61975861      94.79782867      93.16156006      94.18833923      95.33594513      96.72545624      94.80771637      93.84449768      97.27336121      95.51358795      92.54992676
          90.90972137      90.04128265      89.66567230      90.57775879      90.24237061      92.03025055      91.35263062      94.47087097      93.41531372      89.41123199      89.41719818      90.02719879      89.81321716      89.58060455      89.72389221      89.56638336      89.35835266      90.91516876      90.44033051      89.70575714
          89.64353180      89.35260773      89.36630249      89.56970978      89.50502777      89.38011932      89.39045715      90.33307648      90.30629730      92.45757294      92.00093842      89.55026245      89.60316467      89.30893707      89.22876740      89.67139435      89.73529053      89.13732910      89.04065704      90.14441681
          89.83740234      90.07337952      90.56509399      89.51267242      90.01097107      91.04528046      89.07194519      89.38167572      89.44443512      89.04279327      89.93898010      90.38787842      89.42263794      89.94211578      91.38853455      89.82054901      89.07058716      89.67131805      89.02757263      89.41448975
          90.27687836      89.27678680      89.12450409      89.49538422      88.92478180      91.84674835      92.67957306      90.92140198      91.99445343      93.54254150      90.38385010      91.48294067      89.85855865      90.86264801      92.08628845      94.43719482      94.60273743      92.20187378      92.03929901      94.31457520
          94.11555481      91.77577209      91.84320068      94.78617096      95.88418579      92.78659821      94.02452850      95.20736694      94.21510315      93.52106476      92.47702789      93.94400024      93.62548828      91.76795197      91.00895691      92.45213318      91.74391174      91.03578949      90.56864166      89.70832062
          89.28942108      90.36360168      90.27645874      89.12922668      89.07365417      91.81413269      92.68349457      90.38037872      90.80559540      89.25315857      89.70675659      91.15031433      93.77893066      92.97945404      92.37647247      91.85127258      91.62638855      90.93778229      90.41699219      89.99451447
          89.38333893      88.73693848      88.24567413      87.75146484      87.36154175      86.85090637      86.32234955      85.91702271      85.63331604      85.44474030      85.59809875      85.38056183      85.25257874      85.12064362      85.05452728      85.01107788      85.03737640      84.98957825      85.08835602      85.01930237
          84.96014404      85.00354767      85.25856781      85.15293884      85.20182800      85.09352875      85.08833313      85.04096985      85.07188416      85.02468109      84.97859955      84.94892883      85.05208588      85.00572205      85.00092316      84.95293427     103.96549225     100.55120850      98.64054871      97.38059235
          96.49071503      97.02202606      97.15798950      96.93868256      94.99140167      92.45112610      90.72558594      89.74478149      89.22489929      90.08753967      89.57306671      91.45008087      90.44129944      93.69687653      92.26100922      89.08245850      89.58872223      89.02307129      89.24560547      90.23418427
          89.45328522      88.86414337      89.84406281      89.29434967      89.27288818      89.43978119      88.93321991      88.90824890      90.52198029      90.59079742      89.60269928      89.76206207      89.07864380      89.24476624      89.41375732      90.53621674      90.01759338      92.14846039      91.86016083      89.12203979
          88.76239014      90.03668213      89.79755402      88.85140991      88.92095184      89.86303711      89.90248871      91.51898193      91.51860809      90.56658173      90.38242340      89.61304474      89.54815674      89.02670288      88.94287109      89.40680695      89.27490234      88.77522278      88.62200928      90.16593170
          89.95615387      89.13362122      88.99491119      88.60007477      88.71547699      88.85311890      88.72649384      88.80493164      88.87754059      88.98225403      89.03483582      89.92644501      89.93946075      89.64376831      91.43039703      91.37587738      89.81479645      89.93684387      91.40690613      91.44661713
          89.73320007      89.71422577      88.59600830      88.50585938      88.94757080      88.98262787      88.49858093      88.49311066      88.92304230      88.87190247      89.72990417      90.06935883      88.48895264      88.55094910      88.82039642      88.68618774      88.75700378      88.94248962      88.44259644      88.23372650
          90.03458405      89.94361115      91.49107361      91.38146210      89.78379059      89.33884430      91.15200806      90.71453857      90.49720001      91.04580688      89.13775635      89.35095978      88.35189819      88.56316376      89.35668945      91.52253723      91.76939392      89.80428314      90.05478668      88.69887543
          88.46709442      89.34998322      89.11808777      88.19042206      88.25391388      88.84868622      88.61734009      90.28348541      89.81394196      88.48377228      88.64514923      88.38317871      88.21559143      88.79435730      88.90804291      88.01791382      88.10993195      89.44319153      89.12110901      91.76111603
          91.43500519      90.15240479      89.97728729      91.05097961      90.62505341      89.71109009      89.30382538      89.00693512      88.98880768      88.23470306      88.21799469      88.93547821      88.88652802      88.19071198      88.16538239      88.89356232      88.84413147      88.81305695      88.62899017      88.12251282
          87.94769287      88.42140198      88.25017548      87.78276825      87.91736603      88.87026215      89.16043854      90.21081543      89.75082397      88.88597870      88.81032562      88.57430267      88.16740417      87.92029572      89.30780029      88.78572845      88.33320618      88.08564758      87.66794586      87.70662689
          87.78847504      87.52817535      87.90538025      88.06073761      88.05513000      87.80690765      88.05761719      88.26950073      87.79204559      87.99007416      88.49460602      88.66828156      89.39669037      89.73638153      88.57424927      88.86582184      89.96289062      90.13252258      88.39692688      88.42884827
          88.25458527      87.76445770      87.59162140      87.59259796      87.68310547      88.17806244      88.25363922      87.78376007      87.86731720      88.33838654      88.41026306      88.21761322      88.18943787      87.56633759      87.54528809      88.16551971      88.15403748      87.52288818      87.50765228      88.11317444
          88.02795410      89.06595612      89.17260742      90.25566864      90.27442932      89.71547699      88.29200745      88.47308350      87.67023468      87.84629822      88.50557709      87.51689911      87.32843018      88.04176331      87.85410309      87.27587891      87.49817657      87.63600159      87.36013794      89.15430450
          90.13214111      87.91566467      88.34558105      87.25942230      87.68580627      88.73478699      88.69448090      88.15906525      89.69523621      89.04209900      87.47255707      87.15574646      87.89775848      87.58586121      87.50600433      87.98182678      87.18573761      87.43575287      88.45869446      87.61067963
          87.18585968      87.98329926      87.56458282      90.71835327      91.52522278      88.43791962      89.27658844      87.34644318      87.80506897      87.12330627      87.33850861      88.25439453      89.60081482      91.31320953      90.92359161      89.73448181      89.03486633      90.51439667      90.52348328      88.61823273
          88.93843842      90.36218262      91.48523712      90.98235321      89.67514038      88.94674683      88.95311737      87.88286591      87.57559967      86.84942627      86.43681335      88.80527496      89.09829712      87.45758820      87.71078491      86.34239197      86.80974579      87.87852478      89.16994476      88.77420044
          88.20033264      87.53012085      87.27906036      86.57700348      86.10734558      85.82870483      85.57519531      85.30220032      85.39855957      84.91806793      85.11314392      84.97588348      84.95995331      84.80027008      84.92918396      84.87276459      84.84863281      84.74683380      84.65346527      84.76763916
          84.69178009      84.62052155      84.58572388      84.51521301      84.51744080      84.45381927      84.38545227      84.33389282      84.26790619      84.55484772     106.46387482     102.66462708      99.93347168      98.08113098      97.09260559      97.20555878      97.41194916      97.49588776      96.59881592      95.52717590
          94.42987823      94.59069061      96.56367493      96.79766846      93.76919556      93.45480347      95.52538300      95.33916473      93.41244507      92.80052185      95.64325714      94.80076599      91.97469330      91.39832306      94.07684326      93.74481964      91.14264679      91.37030029      93.66218567      93.99287415