# File generated by Flopy version 3.3.3 on 05/04/2021 at 09:22:56.
BEGIN options
  auxiliary  MULTIPLIER
  AUXMULTNAME  multiplier
  BOUNDNAMES
END options

BEGIN dimensions
  MAXBOUND  70
END dimensions

BEGIN period  1
  1 3706  1.64383562E-04       1.00000000  landuse2
  1 3705  1.64383562E-04       1.00000000  landuse2
  1 3704  1.64383562E-04       1.00000000  landuse2
  1 3766  1.64383562E-04       1.00000000  landuse2
  1 3768  1.64383562E-04       1.00000000  landuse2
  1 3826  1.64383562E-04       1.00000000  landuse2
  1 3828  1.64383562E-04       1.00000000  landuse2
  1 3885  1.64383562E-04       1.00000000  landuse2
  1 3942  1.64383562E-04       1.00000000  landuse2
  1 3887  1.64383562E-04       1.00000000  landuse2
  1 3939  1.64383562E-04       1.00000000  landuse2
  1 3999  1.64383562E-04       1.00000000  landuse2
  1 3997  1.64383562E-04       1.00000000  landuse2
  1 3998  1.64383562E-04       1.00000000  landuse2
  1 3993  1.64383562E-04       1.00000000  landuse2
  1 4049  1.64383562E-04       1.00000000  landuse2
  1 4055  1.64383562E-04       1.00000000  landuse2
  1 4107  1.64383562E-04       1.00000000  landuse2
  1 4113  1.64383562E-04       1.00000000  landuse2
  1 4110  1.64383562E-04       1.00000000  landuse2
  1 4108  1.64383562E-04       1.00000000  landuse2
  1 4109  1.64383562E-04       1.00000000  landuse2
  1 4111  1.64383562E-04       1.00000000  landuse2
  1 4112  1.64383562E-04       1.00000000  landuse2
  1 3767  1.64383562E-04       1.00000000  landuse2
  1 3827  1.64383562E-04       1.00000000  landuse2
  1 3886  1.64383562E-04       1.00000000  landuse2
  1 3996  1.64383562E-04       1.00000000  landuse2
  1 3941  1.64383562E-04       1.00000000  landuse2
  1 3940  1.64383562E-04       1.00000000  landuse2
  1 4053  1.64383562E-04       1.00000000  landuse2
  1 4054  1.64383562E-04       1.00000000  landuse2
  1 3994  1.64383562E-04       1.00000000  landuse2
  1 4050  1.64383562E-04       1.00000000  landuse2
  1 4052  1.64383562E-04       1.00000000  landuse2
  1 4051  1.64383562E-04       1.00000000  landuse2
  1 3995  1.64383562E-04       1.00000000  landuse2
  1 3646  1.64383562E-04       1.00000000  landuse2
  1 3645  1.64383562E-04       1.00000000  landuse2
  1 3644  1.64383562E-04       1.00000000  landuse2
  1 3642  1.64383562E-04       1.00000000  landuse2
  1 3643  1.64383562E-04       1.00000000  landuse2
  1 3703  1.64383562E-04       1.00000000  landuse2
  1 3707  1.64383562E-04       1.00000000  landuse2
  1 3765  1.64383562E-04       1.00000000  landuse2
  1 3769  1.64383562E-04       1.00000000  landuse2
  1 3825  1.64383562E-04       1.00000000  landuse2
  1 3829  1.64383562E-04       1.00000000  landuse2
  1 3884  1.64383562E-04       1.00000000  landuse2
  1 3888  1.64383562E-04       1.00000000  landuse2
  1 3938  1.64383562E-04       1.00000000  landuse2
  1 3946  1.64383562E-04       1.00000000  landuse2
  1 3945  1.64383562E-04       1.00000000  landuse2
  1 3943  1.64383562E-04       1.00000000  landuse2
  1 3944  1.64383562E-04       1.00000000  landuse2
  1 3992  1.64383562E-04       1.00000000  landuse2
  1 4000  1.64383562E-04       1.00000000  landuse2
  1 4048  1.64383562E-04       1.00000000  landuse2
  1 4056  1.64383562E-04       1.00000000  landuse2
  1 4106  1.64383562E-04       1.00000000  landuse2
  1 4114  1.64383562E-04       1.00000000  landuse2
  1 4164  1.64383562E-04       1.00000000  landuse2
  1 4157  1.64383562E-04       1.00000000  landuse2
  1 4165  1.64383562E-04       1.00000000  landuse2
  1 4158  1.64383562E-04       1.00000000  landuse2
  1 4161  1.64383562E-04       1.00000000  landuse2
  1 4159  1.64383562E-04       1.00000000  landuse2
  1 4160  1.64383562E-04       1.00000000  landuse2
  1 4162  1.64383562E-04       1.00000000  landuse2
  1 4163  1.64383562E-04       1.00000000  landuse2
END period  1

