# File generated by Flopy version 3.3.3 on 05/04/2021 at 09:22:56.
BEGIN options
  auxiliary  iface
  BOUNDNAMES
  AUTO_FLOW_REDUCE       0.10000000
  OBS6  FILEIN  model.wel.obs
END options

BEGIN dimensions
  MAXBOUND  13
END dimensions

BEGIN period  1
    OPEN/CLOSE  'model.wel_stress_period_data_1.txt'
END period  1

BEGIN period  2
    OPEN/CLOSE  'model.wel_stress_period_data_2.txt'
END period  2

