# File generated by Flopy version 3.3.3 on 05/04/2021 at 09:22:55.
BEGIN options
  PRINT_OPTION  summary
  COMPLEXITY  simple
END options

