# File generated by Flopy version 3.3.3 on 05/04/2021 at 09:22:55.
BEGIN options
  TIME_UNITS  days
END options

BEGIN dimensions
  NPER  2
END dimensions

BEGIN perioddata
       1.00000000  1       1.00000000
       1.00000000  1       1.00000000
END perioddata

