# File generated by Flopy version 3.3.3 on 05/04/2021 at 09:22:56.
BEGIN options
  DIGITS  9
END options

BEGIN continuous  FILEOUT  .\obs\wel_flow.csv
  luse2  WEL  luse2
  luse3  WEL  luse3
  new_wells  WEL  new_wells
END continuous  FILEOUT  .\obs\wel_flow.csv

