# File generated by Flopy version 3.3.3 on 05/04/2021 at 09:22:56.
BEGIN options
END options

BEGIN griddata
  iconvert
    CONSTANT  1
  ss
    CONSTANT  1.00000000E-05
  sy
    CONSTANT       0.15000000
END griddata

BEGIN period  1
  STEADY-STATE
END period  1

BEGIN period  2
  STEADY-STATE
END period  2

