# File generated by Flopy version 3.3.3 on 05/04/2021 at 09:22:56.
BEGIN options
  DIGITS  9
END options

BEGIN continuous  FILEOUT  .\obs\ghb_flow.csv
  ghb-1  GHB  west-boundary1
  ghb-3  GHB  west-boundary3
END continuous  FILEOUT  .\obs\ghb_flow.csv

