# File generated by Flopy version 3.3.3 on 05/04/2021 at 09:22:56.
BEGIN options
  BOUNDNAMES
  OBS6  FILEIN  model.ghb.obs
END options

BEGIN dimensions
  MAXBOUND  80
END dimensions

BEGIN period  1
    OPEN/CLOSE  'model.ghb_stress_period_data_1.txt'
END period  1

