# File generated by Flopy version 3.3.3 on 05/04/2021 at 09:22:56.
BEGIN options
  BUDGET  FILEOUT  model.cbb
  HEAD  FILEOUT  model.hds
  HEAD  PRINT_FORMAT  COLUMNS  10  WIDTH  15  DIGITS  6  GENERAL
END options

BEGIN period  1
  SAVE  HEAD  LAST
  SAVE  BUDGET  LAST
  PRINT  HEAD  LAST
  PRINT  BUDGET  LAST
END period  1

