# File generated by Flopy version 3.3.3 on 05/04/2021 at 09:22:56.
BEGIN options
  DIGITS  9
END options

BEGIN continuous  FILEOUT  .\obs\evt_flow.csv
  evt-1  EVT  landuse1
  evt-2  EVT  landuse2
  evt-3  EVT  landuse3
END continuous  FILEOUT  .\obs\evt_flow.csv

