# File generated by Flopy version 3.3.3 on 05/04/2021 at 09:22:56.
BEGIN options
  DIGITS  9
END options

BEGIN continuous  FILEOUT  .\obs\stream_flow.csv
  trib  RIV  trib
  main  RIV  main
END continuous  FILEOUT  .\obs\stream_flow.csv

