# File generated by Flopy version 3.3.3 on 05/04/2021 at 09:22:56.
BEGIN options
  DIGITS  9
END options

BEGIN continuous  FILEOUT  .\obs\chd_flow.csv
  river  CHD  river-bc
END continuous  FILEOUT  .\obs\chd_flow.csv

