# File generated by Flopy version 3.3.3 on 04/14/2021 at 16:24:14.
BEGIN options
  DIGITS  9
END options

BEGIN continuous  FILEOUT  .\obs\ghb_flow.csv
  ghb-1  GHB  west-boundary1
  ghb-3  GHB  west-boundary3
END continuous  FILEOUT  .\obs\ghb_flow.csv

