# File generated by Flopy version 3.3.3 on 04/14/2021 at 16:24:14.
BEGIN options
  BOUNDNAMES
  OBS6  FILEIN  model.riv.obs
END options

BEGIN dimensions
  MAXBOUND  672
END dimensions

BEGIN period  1
    OPEN/CLOSE  'model.riv_stress_period_data_1.txt'
END period  1

