# File generated by Flopy version 3.3.3 on 04/14/2021 at 16:24:14.
BEGIN options
  BUDGET  FILEOUT  model.cbb
  HEAD  FILEOUT  model.hds
  HEAD  PRINT_FORMAT  COLUMNS  10  WIDTH  15  DIGITS  6  GENERAL
END options

BEGIN period  1
  SAVE  HEAD  LAST
  SAVE  BUDGET  LAST
  PRINT  HEAD  LAST
  PRINT  BUDGET  LAST
END period  1

