# File generated by Flopy version 3.3.3 on 04/14/2021 at 16:24:13.
BEGIN options
END options

BEGIN packages
  DISV6  model.disv  disv
  STO6  model.sto  sto
  NPF6  model.npf  npf
  IC6  model.ic  ic
  RCH6  model.lu1.rch  rch1
  RCH6  model.lu2.rch  rch2
  RCH6  model.lu3.rch  rch3
  EVT6  model.evt  evt
  CHD6  model.chd  chd_0
  GHB6  model.ghb  ghb_0
  RIV6  model.riv  riv_0
  DRN6  model.surf.drn  drn2
  WEL6  model.wel  wel_0
  OBS6  model.obs  head_obs
  OC6  model.oc  oc
END packages

