# File generated by Flopy version 3.3.3 on 04/14/2021 at 16:24:13.
BEGIN options
  auxiliary  MULTIPLIER
  AUXMULTNAME  multiplier
  BOUNDNAMES
  OBS6  FILEIN  model.lu1.rch.obs
END options

BEGIN dimensions
  MAXBOUND  4307
END dimensions

BEGIN period  1
    OPEN/CLOSE  'model.lu1.rch_stress_period_data_1.txt'
END period  1

