# File generated by Flopy version 3.3.3 on 04/14/2021 at 16:24:14.
BEGIN options
  DIGITS  9
END options

BEGIN continuous  FILEOUT  .\obs\wel_flow.csv
  luse2  WEL  luse2
  luse3  WEL  luse3
  new_wells  WEL  new_wells
END continuous  FILEOUT  .\obs\wel_flow.csv

