# File generated by Flopy version 3.3.3 on 04/14/2021 at 16:24:13.
BEGIN options
  auxiliary  MULTIPLIER
  AUXMULTNAME  multiplier
  BOUNDNAMES
  OBS6  FILEIN  model.evt.obs
END options

BEGIN dimensions
  MAXBOUND  4307
  NSEG  1
END dimensions

BEGIN period  1
  1 1     113.80310059       0.00315068       2.00000000       0.00000000       1.00000000  landuse1
  1 2     112.27372742       0.00356164       2.00000000       0.00000000       1.00000000  landuse1
  1 3     110.71407318       0.00397260       2.00000000       0.00000000       1.00000000  landuse1
  1 4     109.16827393       0.00438356       2.00000000       0.00000000       1.00000000  landuse1
  1 5     107.62925720       0.00479452       2.00000000       0.00000000       1.00000000  landuse1
  1 6     106.08296204       0.00520548       2.00000000       0.00000000       1.00000000  landuse1
  1 7     104.55234528       0.00561644       2.00000000       0.00000000       1.00000000  landuse1
  1 8     103.04358673       0.00602740       2.00000000       0.00000000       1.00000000  landuse1
  1 9     101.48725891       0.00643836       2.00000000       0.00000000       1.00000000  landuse1
  1 10     100.02814484       0.00684932       2.00000000       0.00000000       1.00000000  landuse1
  1 11      98.61745453       0.00726027       2.00000000       0.00000000       1.00000000  landuse1
  1 12      97.24736023       0.00767123       2.00000000       0.00000000       1.00000000  landuse1
  1 13      96.50747681       0.00808219       2.00000000       0.00000000       1.00000000  landuse1
  1 14      95.88565826       0.00849315       2.00000000       0.00000000       1.00000000  landuse1
  1 15      95.33622742       0.00890411       2.00000000       0.00000000       1.00000000  landuse1
  1 16      94.81226349       0.00931507       2.00000000       0.00000000       1.00000000  landuse1
  1 17      94.32510376       0.00972603       2.00000000       0.00000000       1.00000000  landuse1
  1 18      93.87625122       0.01013699       2.00000000       0.00000000       1.00000000  landuse1
  1 19      93.43533325       0.01054795       2.00000000       0.00000000       1.00000000  landuse1
  1 20      93.00566101       0.01095890       2.00000000       0.00000000       1.00000000  landuse1
  1 21      92.52083588       0.01136986       2.00000000       0.00000000       1.00000000  landuse1
  1 22      92.08876038       0.01178082       2.00000000       0.00000000       1.00000000  landuse1
  1 23      91.65180969       0.01219178       2.00000000       0.00000000       1.00000000  landuse1
  1 24      91.20829010       0.01260274       2.00000000       0.00000000       1.00000000  landuse1
  1 25      90.77410126       0.01301370       2.00000000       0.00000000       1.00000000  landuse1
  1 26      90.33278656       0.01342466       2.00000000       0.00000000       1.00000000  landuse1
  1 27      89.89356995       0.01383562       2.00000000       0.00000000       1.00000000  landuse1
  1 28      89.46178436       0.01424658       2.00000000       0.00000000       1.00000000  landuse1
  1 29      89.03141785       0.01465753       2.00000000       0.00000000       1.00000000  landuse1
  1 30      88.61634827       0.01506849       2.00000000       0.00000000       1.00000000  landuse1
  1 31      88.20399475       0.01547945       2.00000000       0.00000000       1.00000000  landuse1
  1 32      87.80307770       0.01589041       2.00000000       0.00000000       1.00000000  landuse1
  1 33      87.39691162       0.01630137       2.00000000       0.00000000       1.00000000  landuse1
  1 34      86.99667358       0.01671233       2.00000000       0.00000000       1.00000000  landuse1
  1 35      86.59992981       0.01712329       2.00000000       0.00000000       1.00000000  landuse1
  1 36      86.19165802       0.01753425       2.00000000       0.00000000       1.00000000  landuse1
  1 37      85.81326294       0.01794521       2.00000000       0.00000000       1.00000000  landuse1
  1 38      85.57397461       0.01835616       2.00000000       0.00000000       1.00000000  landuse1
  1 39      85.36214447       0.01876712       2.00000000       0.00000000       1.00000000  landuse1
  1 40      85.50852203       0.01917808       2.00000000       0.00000000       1.00000000  landuse1
  1 41      85.30529785       0.01958904       2.00000000       0.00000000       1.00000000  landuse1
  1 42      85.20563507       0.02000000       2.00000000       0.00000000       1.00000000  landuse1
  1 43      85.10896301       0.02041096       2.00000000       0.00000000       1.00000000  landuse1
  1 44      85.06098175       0.02082192       2.00000000       0.00000000       1.00000000  landuse1
  1 45      85.02774048       0.02123288       2.00000000       0.00000000       1.00000000  landuse1
  1 46      85.04395294       0.02164384       2.00000000       0.00000000       1.00000000  landuse1
  1 47      85.01058960       0.02205479       2.00000000       0.00000000       1.00000000  landuse1
  1 48      85.07638550       0.02246575       2.00000000       0.00000000       1.00000000  landuse1
  1 49      85.02540588       0.02287671       2.00000000       0.00000000       1.00000000  landuse1
  1 50      84.99718475       0.02328767       2.00000000       0.00000000       1.00000000  landuse1
  1 51      85.01002502       0.02369863       2.00000000       0.00000000       1.00000000  landuse1
  1 52      84.99253082       0.02410959       2.00000000       0.00000000       1.00000000  landuse1
  1 53      85.19828033       0.02452055       2.00000000       0.00000000       1.00000000  landuse1
  1 54      85.11801147       0.02493151       2.00000000       0.00000000       1.00000000  landuse1
  1 55      85.17005157       0.02534247       2.00000000       0.00000000       1.00000000  landuse1
  1 56      85.08720398       0.02575342       2.00000000       0.00000000       1.00000000  landuse1
  1 57      85.07130432       0.02616438       2.00000000       0.00000000       1.00000000  landuse1
  1 58      85.03559875       0.02657534       2.00000000       0.00000000       1.00000000  landuse1
  1 59      85.05580902       0.02698630       2.00000000       0.00000000       1.00000000  landuse1
  1 60      85.01998901       0.02739726       2.00000000       0.00000000       1.00000000  landuse1
  1 61      84.99834442       0.02780822       2.00000000       0.00000000       1.00000000  landuse1
  1 62      84.99371338       0.02821918       2.00000000       0.00000000       1.00000000  landuse1
  1 63      85.03752899       0.02863014       2.00000000       0.00000000       1.00000000  landuse1
  1 64      85.00154114       0.02904110       2.00000000       0.00000000       1.00000000  landuse1
  1 65      85.02375031       0.02945205       2.00000000       0.00000000       1.00000000  landuse1
  1 66      84.99586487       0.02986301       2.00000000       0.00000000       1.00000000  landuse1
  1 67      84.99841309       0.03027397       2.00000000       0.00000000       1.00000000  landuse1
  1 68      84.99310303       0.03068493       2.00000000       0.00000000       1.00000000  landuse1
  1 69     112.98202515       0.03109589       2.00000000       0.00000000       1.00000000  landuse1
  1 70     111.48103333       0.03150685       2.00000000       0.00000000       1.00000000  landuse1
  1 71     109.95848083       0.03191781       2.00000000       0.00000000       1.00000000  landuse1
  1 72     108.46534729       0.03232877       2.00000000       0.00000000       1.00000000  landuse1
  1 73     106.99819946       0.03273973       2.00000000       0.00000000       1.00000000  landuse1
  1 74     105.53603363       0.03315068       2.00000000       0.00000000       1.00000000  landuse1
  1 75     104.06297302       0.03356164       2.00000000       0.00000000       1.00000000  landuse1
  1 76     102.61985016       0.03397260       2.00000000       0.00000000       1.00000000  landuse1
  1 77     101.15249634       0.03438356       2.00000000       0.00000000       1.00000000  landuse1
  1 78      99.76177216       0.03479452       2.00000000       0.00000000       1.00000000  landuse1
  1 79      98.41593933       0.03520548       2.00000000       0.00000000       1.00000000  landuse1
  1 80      97.10972595       0.03561644       2.00000000       0.00000000       1.00000000  landuse1
  1 81      96.41988373       0.03602740       2.00000000       0.00000000       1.00000000  landuse1
  1 82      95.79266357       0.03643836       2.00000000       0.00000000       1.00000000  landuse1
  1 83      95.21646881       0.03684932       2.00000000       0.00000000       1.00000000  landuse1
  1 84      94.70619202       0.03726027       2.00000000       0.00000000       1.00000000  landuse1
  1 85      94.23918915       0.03767123       2.00000000       0.00000000       1.00000000  landuse1
  1 86      93.78970337       0.03808219       2.00000000       0.00000000       1.00000000  landuse1
  1 87      93.35863495       0.03849315       2.00000000       0.00000000       1.00000000  landuse1
  1 88      92.93443298       0.03890411       2.00000000       0.00000000       1.00000000  landuse1
  1 89      92.46823883       0.03931507       2.00000000       0.00000000       1.00000000  landuse1
  1 90      92.02281952       0.03972603       2.00000000       0.00000000       1.00000000  landuse1
  1 91      91.57955170       0.04013699       2.00000000       0.00000000       1.00000000  landuse1
  1 92      91.13442230       0.04054795       2.00000000       0.00000000       1.00000000  landuse1
  1 93      90.68785858       0.04095890       2.00000000       0.00000000       1.00000000  landuse1
  1 94      90.24005127       0.04136986       2.00000000       0.00000000       1.00000000  landuse1
  1 95      89.79808044       0.04178082       2.00000000       0.00000000       1.00000000  landuse1
  1 96      89.35679626       0.04219178       2.00000000       0.00000000       1.00000000  landuse1
  1 97      88.92984772       0.04260274       2.00000000       0.00000000       1.00000000  landuse1
  1 98      88.50751495       0.04301370       2.00000000       0.00000000       1.00000000  landuse1
  1 99      88.08938599       0.04342466       2.00000000       0.00000000       1.00000000  landuse1
  1 100      87.67573547       0.04383562       2.00000000       0.00000000       1.00000000  landuse1
  1 101      87.26412201       0.04424658       2.00000000       0.00000000       1.00000000  landuse1
  1 102      86.86235046       0.04465753       2.00000000       0.00000000       1.00000000  landuse1
  1 103      86.46697998       0.04506849       2.00000000       0.00000000       1.00000000  landuse1
  1 104      86.07008362       0.04547945       2.00000000       0.00000000       1.00000000  landuse1
  1 105      85.67948151       0.04589041       2.00000000       0.00000000       1.00000000  landuse1
  1 106      85.44287872       0.04630137       2.00000000       0.00000000       1.00000000  landuse1
  1 107      85.25106049       0.04671233       2.00000000       0.00000000       1.00000000  landuse1
  1 108      85.38083649       0.04712329       2.00000000       0.00000000       1.00000000  landuse1
  1 109      85.20590973       0.04753425       2.00000000       0.00000000       1.00000000  landuse1
  1 110      85.14214325       0.04794521       2.00000000       0.00000000       1.00000000  landuse1
  1 111      85.05881500       0.04835616       2.00000000       0.00000000       1.00000000  landuse1
  1 112      85.11128235       0.04876712       2.00000000       0.00000000       1.00000000  landuse1
  1 113      85.05389404       0.04917808       2.00000000       0.00000000       1.00000000  landuse1
  1 114      85.01567078       0.04958904       2.00000000       0.00000000       1.00000000  landuse1
  1 115      85.04119110       0.05000000       2.00000000       0.00000000       1.00000000  landuse1
  1 116      85.00103760       0.05041096       2.00000000       0.00000000       1.00000000  landuse1
  1 117      85.00939941       0.05082192       2.00000000       0.00000000       1.00000000  landuse1
  1 118      84.99846649       0.05123288       2.00000000       0.00000000       1.00000000  landuse1
  1 119      84.99344635       0.05164384       2.00000000       0.00000000       1.00000000  landuse1
  1 120      85.08860779       0.05205479       2.00000000       0.00000000       1.00000000  landuse1
  1 121      85.02650452       0.05246575       2.00000000       0.00000000       1.00000000  landuse1
  1 122      84.99596405       0.05287671       2.00000000       0.00000000       1.00000000  landuse1
  1 123      85.01345062       0.05328767       2.00000000       0.00000000       1.00000000  landuse1
  1 124      84.99240112       0.05369863       2.00000000       0.00000000       1.00000000  landuse1
  1 125      85.06043243       0.05410959       2.00000000       0.00000000       1.00000000  landuse1
  1 126      84.99948883       0.05452055       2.00000000       0.00000000       1.00000000  landuse1
  1 127      84.99585724       0.05493151       2.00000000       0.00000000       1.00000000  landuse1
  1 128     112.18534851       0.05534247       2.00000000       0.00000000       1.00000000  landuse1
  1 129     110.74909210       0.05575342       2.00000000       0.00000000       1.00000000  landuse1
  1 130     109.30266571       0.05616438       2.00000000       0.00000000       1.00000000  landuse1
  1 131     107.87622070       0.05657534       2.00000000       0.00000000       1.00000000  landuse1
  1 132     106.47556305       0.05698630       2.00000000       0.00000000       1.00000000  landuse1
  1 133     105.08781433       0.05739726       2.00000000       0.00000000       1.00000000  landuse1
  1 134     103.70140076       0.05780822       2.00000000       0.00000000       1.00000000  landuse1
  1 135     102.31846619       0.05821918       2.00000000       0.00000000       1.00000000  landuse1
  1 136     100.92201233       0.05863014       2.00000000       0.00000000       1.00000000  landuse1
  1 137      99.57052612       0.05904110       2.00000000       0.00000000       1.00000000  landuse1
  1 138      98.26863098       0.05945205       2.00000000       0.00000000       1.00000000  landuse1
  1 139      97.01639557       0.05986301       2.00000000       0.00000000       1.00000000  landuse1
  1 140      96.35144043       0.06027397       2.00000000       0.00000000       1.00000000  landuse1
  1 141      95.74122620       0.06068493       2.00000000       0.00000000       1.00000000  landuse1
  1 142      95.16016388       0.06109589       2.00000000       0.00000000       1.00000000  landuse1
  1 143      94.63951111       0.06150685       2.00000000       0.00000000       1.00000000  landuse1
  1 144      94.17002106       0.06191781       2.00000000       0.00000000       1.00000000  landuse1
  1 145      93.72278595       0.06232877       2.00000000       0.00000000       1.00000000  landuse1
  1 146      93.28500366       0.06273973       2.00000000       0.00000000       1.00000000  landuse1
  1 147      92.84762573       0.06315068       2.00000000       0.00000000       1.00000000  landuse1
  1 148      92.39864349       0.06356164       2.00000000       0.00000000       1.00000000  landuse1
  1 149      91.94833374       0.06397260       2.00000000       0.00000000       1.00000000  landuse1
  1 150      91.50085449       0.06438356       2.00000000       0.00000000       1.00000000  landuse1
  1 151      91.05475616       0.06479452       2.00000000       0.00000000       1.00000000  landuse1
  1 152      90.60049438       0.06520548       2.00000000       0.00000000       1.00000000  landuse1
  1 153      90.14984894       0.06561644       2.00000000       0.00000000       1.00000000  landuse1
  1 154      89.70918274       0.06602740       2.00000000       0.00000000       1.00000000  landuse1
  1 155      89.26696777       0.06643836       2.00000000       0.00000000       1.00000000  landuse1
  1 156      88.83192444       0.06684932       2.00000000       0.00000000       1.00000000  landuse1
  1 157      88.40230560       0.06726027       2.00000000       0.00000000       1.00000000  landuse1
  1 158      87.97769165       0.06767123       2.00000000       0.00000000       1.00000000  landuse1
  1 159      87.55792999       0.06808219       2.00000000       0.00000000       1.00000000  landuse1
  1 160      87.14356995       0.06849315       2.00000000       0.00000000       1.00000000  landuse1
  1 161      86.73834229       0.06890411       2.00000000       0.00000000       1.00000000  landuse1
  1 162      86.35130310       0.06931507       2.00000000       0.00000000       1.00000000  landuse1
  1 163      85.96304321       0.06972603       2.00000000       0.00000000       1.00000000  landuse1
  1 164      85.58641052       0.07013699       2.00000000       0.00000000       1.00000000  landuse1
  1 165      85.33296967       0.07054795       2.00000000       0.00000000       1.00000000  landuse1
  1 166      85.20906830       0.07095890       2.00000000       0.00000000       1.00000000  landuse1
  1 167      85.11779785       0.07136986       2.00000000       0.00000000       1.00000000  landuse1
  1 168      85.18603516       0.07178082       2.00000000       0.00000000       1.00000000  landuse1
  1 169      85.09342194       0.07219178       2.00000000       0.00000000       1.00000000  landuse1
  1 170      85.29290771       0.07260274       2.00000000       0.00000000       1.00000000  landuse1
  1 171      85.16693115       0.07301370       2.00000000       0.00000000       1.00000000  landuse1
  1 172      85.07441711       0.07342466       2.00000000       0.00000000       1.00000000  landuse1
  1 173      85.14646912       0.07383562       2.00000000       0.00000000       1.00000000  landuse1
  1 174      85.05390930       0.07424658       2.00000000       0.00000000       1.00000000  landuse1
  1 175      85.06151581       0.07465753       2.00000000       0.00000000       1.00000000  landuse1
  1 176      85.01994324       0.07506849       2.00000000       0.00000000       1.00000000  landuse1
  1 177      85.04832458       0.07547945       2.00000000       0.00000000       1.00000000  landuse1
  1 178      85.00672150       0.07589041       2.00000000       0.00000000       1.00000000  landuse1
  1 179      84.99234772       0.07630137       2.00000000       0.00000000       1.00000000  landuse1
  1 180      85.03462982       0.07671233       2.00000000       0.00000000       1.00000000  landuse1
  1 181      84.99811554       0.07712329       2.00000000       0.00000000       1.00000000  landuse1
  1 182      85.02514648       0.07753425       2.00000000       0.00000000       1.00000000  landuse1
  1 183      84.99582672       0.07794521       2.00000000       0.00000000       1.00000000  landuse1
  1 184      85.01567841       0.07835616       2.00000000       0.00000000       1.00000000  landuse1
  1 185      85.00621033       0.07876712       2.00000000       0.00000000       1.00000000  landuse1
  1 186      84.99887848       0.07917808       2.00000000       0.00000000       1.00000000  landuse1
  1 187      84.99676514       0.07958904       2.00000000       0.00000000       1.00000000  landuse1
  1 188     111.42344666       0.08000000       2.00000000       0.00000000       1.00000000  landuse1
  1 189     110.12893677       0.08041096       2.00000000       0.00000000       1.00000000  landuse1
  1 190     108.83815002       0.08082192       2.00000000       0.00000000       1.00000000  landuse1
  1 191     107.47351837       0.08123288       2.00000000       0.00000000       1.00000000  landuse1
  1 192     106.09843445       0.08164384       2.00000000       0.00000000       1.00000000  landuse1
  1 193     104.75895691       0.08205479       2.00000000       0.00000000       1.00000000  landuse1
  1 194     103.44880676       0.08246575       2.00000000       0.00000000       1.00000000  landuse1
  1 195     102.13883209       0.08287671       2.00000000       0.00000000       1.00000000  landuse1
  1 196     100.77497101       0.08328767       2.00000000       0.00000000       1.00000000  landuse1
  1 197      99.44651794       0.08369863       2.00000000       0.00000000       1.00000000  landuse1
  1 198      98.17344666       0.08410959       2.00000000       0.00000000       1.00000000  landuse1
  1 199      96.98578644       0.08452055       2.00000000       0.00000000       1.00000000  landuse1
  1 200      96.33572388       0.08493151       2.00000000       0.00000000       1.00000000  landuse1
  1 201      95.72084045       0.08534247       2.00000000       0.00000000       1.00000000  landuse1
  1 202      95.13026428       0.08575342       2.00000000       0.00000000       1.00000000  landuse1
  1 203      94.59160614       0.08616438       2.00000000       0.00000000       1.00000000  landuse1
  1 204      94.12721252       0.08657534       2.00000000       0.00000000       1.00000000  landuse1
  1 205      93.67344666       0.08698630       2.00000000       0.00000000       1.00000000  landuse1
  1 206      93.22515106       0.08739726       2.00000000       0.00000000       1.00000000  landuse1
  1 207      92.77829742       0.08780822       2.00000000       0.00000000       1.00000000  landuse1
  1 208      92.32714081       0.08821918       2.00000000       0.00000000       1.00000000  landuse1
  1 209      91.87427521       0.08863014       2.00000000       0.00000000       1.00000000  landuse1
  1 210      91.42140961       0.08904110       2.00000000       0.00000000       1.00000000  landuse1
  1 211      90.96707153       0.08945205       2.00000000       0.00000000       1.00000000  landuse1
  1 212      90.51487732       0.08986301       2.00000000       0.00000000       1.00000000  landuse1
  1 213      90.06810760       0.09027397       2.00000000       0.00000000       1.00000000  landuse1
  1 214      89.62337494       0.09068493       2.00000000       0.00000000       1.00000000  landuse1
  1 215      89.18014526       0.09109589       2.00000000       0.00000000       1.00000000  landuse1
  1 216      88.74247742       0.09150685       2.00000000       0.00000000       1.00000000  landuse1
  1 217      88.30950165       0.09191781       2.00000000       0.00000000       1.00000000  landuse1
  1 218      87.88209534       0.09232877       2.00000000       0.00000000       1.00000000  landuse1
  1 219      87.46041870       0.09273973       2.00000000       0.00000000       1.00000000  landuse1
  1 220      87.04435730       0.09315068       2.00000000       0.00000000       1.00000000  landuse1
  1 221      86.63764954       0.09356164       2.00000000       0.00000000       1.00000000  landuse1
  1 222      86.25954437       0.09397260       2.00000000       0.00000000       1.00000000  landuse1
  1 223      85.88483429       0.09438356       2.00000000       0.00000000       1.00000000  landuse1
  1 224      85.51808167       0.09479452       2.00000000       0.00000000       1.00000000  landuse1
  1 225      85.26090240       0.09520548       2.00000000       0.00000000       1.00000000  landuse1
  1 226      85.13150024       0.09561644       2.00000000       0.00000000       1.00000000  landuse1
  1 227      85.06302643       0.09602740       2.00000000       0.00000000       1.00000000  landuse1
  1 228      85.02061462       0.09643836       2.00000000       0.00000000       1.00000000  landuse1
  1 229      85.05814362       0.09684932       2.00000000       0.00000000       1.00000000  landuse1
  1 230      85.01582336       0.09726027       2.00000000       0.00000000       1.00000000  landuse1
  1 231      85.12055969       0.09767123       2.00000000       0.00000000       1.00000000  landuse1
  1 232      85.05239868       0.09808219       2.00000000       0.00000000       1.00000000  landuse1
  1 233      85.01023865       0.09849315       2.00000000       0.00000000       1.00000000  landuse1
  1 234      85.04761505       0.09890411       2.00000000       0.00000000       1.00000000  landuse1
  1 235      85.00549316       0.09931507       2.00000000       0.00000000       1.00000000  landuse1
  1 236      85.23661041       0.09972603       2.00000000       0.00000000       1.00000000  landuse1
  1 237      85.11102295       0.10013699       2.00000000       0.00000000       1.00000000  landuse1
  1 238      85.04287720       0.10054795       2.00000000       0.00000000       1.00000000  landuse1
  1 239      85.00074768       0.10095890       2.00000000       0.00000000       1.00000000  landuse1
  1 240      85.03814697       0.10136986       2.00000000       0.00000000       1.00000000  landuse1
  1 241      84.99921417       0.10178082       2.00000000       0.00000000       1.00000000  landuse1
  1 242      85.10415649       0.10219178       2.00000000       0.00000000       1.00000000  landuse1
  1 243      85.03539276       0.10260274       2.00000000       0.00000000       1.00000000  landuse1
  1 244      84.99900818       0.10301370       2.00000000       0.00000000       1.00000000  landuse1
  1 245      85.03559875       0.10342466       2.00000000       0.00000000       1.00000000  landuse1
  1 246      84.99908447       0.10383562       2.00000000       0.00000000       1.00000000  landuse1
  1 247      84.99555969       0.10424658       2.00000000       0.00000000       1.00000000  landuse1
  1 248     110.68889618       0.10465753       2.00000000       0.00000000       1.00000000  landuse1
  1 249     109.58599854       0.10506849       2.00000000       0.00000000       1.00000000  landuse1
  1 250     108.45707703       0.10547945       2.00000000       0.00000000       1.00000000  landuse1
  1 251     107.15776062       0.10589041       2.00000000       0.00000000       1.00000000  landuse1
  1 252     105.78839111       0.10630137       2.00000000       0.00000000       1.00000000  landuse1
  1 253     104.47446442       0.10671233       2.00000000       0.00000000       1.00000000  landuse1
  1 254     103.20558929       0.10712329       2.00000000       0.00000000       1.00000000  landuse1
  1 255     101.93577576       0.10753425       2.00000000       0.00000000       1.00000000  landuse1
  1 256     100.63488770       0.10794521       2.00000000       0.00000000       1.00000000  landuse1
  1 257      99.34629059       0.10835616       2.00000000       0.00000000       1.00000000  landuse1
  1 258      98.10302734       0.10876712       2.00000000       0.00000000       1.00000000  landuse1
  1 259      97.01638031       0.10917808       2.00000000       0.00000000       1.00000000  landuse1
  1 260      96.36405182       0.10958904       2.00000000       0.00000000       1.00000000  landuse1
  1 261      95.75767517       0.11000000       2.00000000       0.00000000       1.00000000  landuse1
  1 262      95.17926025       0.11041096       2.00000000       0.00000000       1.00000000  landuse1
  1 263      94.63629913       0.11082192       2.00000000       0.00000000       1.00000000  landuse1
  1 264      94.14197540       0.11123288       2.00000000       0.00000000       1.00000000  landuse1
  1 265      93.66907501       0.11164384       2.00000000       0.00000000       1.00000000  landuse1
  1 266      93.20478058       0.11205479       2.00000000       0.00000000       1.00000000  landuse1
  1 267      92.74083710       0.11246575       2.00000000       0.00000000       1.00000000  landuse1
  1 268      92.27748871       0.11287671       2.00000000       0.00000000       1.00000000  landuse1
  1 269      91.81589508       0.11328767       2.00000000       0.00000000       1.00000000  landuse1
  1 270      91.35620880       0.11369863       2.00000000       0.00000000       1.00000000  landuse1
  1 271      90.89779663       0.11410959       2.00000000       0.00000000       1.00000000  landuse1
  1 272      90.44274139       0.11452055       2.00000000       0.00000000       1.00000000  landuse1
  1 273      89.99195099       0.11493151       2.00000000       0.00000000       1.00000000  landuse1
  1 274      89.54432678       0.11534247       2.00000000       0.00000000       1.00000000  landuse1
  1 275      89.10050964       0.11575342       2.00000000       0.00000000       1.00000000  landuse1
  1 276      88.66190338       0.11616438       2.00000000       0.00000000       1.00000000  landuse1
  1 277      88.22914886       0.11657534       2.00000000       0.00000000       1.00000000  landuse1
  1 278      87.80281067       0.11698630       2.00000000       0.00000000       1.00000000  landuse1
  1 279      87.38574219       0.11739726       2.00000000       0.00000000       1.00000000  landuse1
  1 280      86.97217560       0.11780822       2.00000000       0.00000000       1.00000000  landuse1
  1 281      86.57279968       0.11821918       2.00000000       0.00000000       1.00000000  landuse1
  1 282      86.19632721       0.11863014       2.00000000       0.00000000       1.00000000  landuse1
  1 283      85.83145142       0.11904110       2.00000000       0.00000000       1.00000000  landuse1
  1 284      85.47674561       0.11945205       2.00000000       0.00000000       1.00000000  landuse1
  1 285      85.23138428       0.11986301       2.00000000       0.00000000       1.00000000  landuse1
  1 286      85.10358429       0.12027397       2.00000000       0.00000000       1.00000000  landuse1
  1 287      85.03574371       0.12068493       2.00000000       0.00000000       1.00000000  landuse1
  1 288      84.99914551       0.12109589       2.00000000       0.00000000       1.00000000  landuse1
  1 289      85.03585052       0.12150685       2.00000000       0.00000000       1.00000000  landuse1