# File generated by Flopy version 3.3.3 on 04/14/2021 at 16:24:14.
BEGIN options
  DIGITS  9
END options

BEGIN continuous  FILEOUT  .\obs\evt_flow.csv
  evt-1  EVT  landuse1
  evt-2  EVT  landuse2
  evt-3  EVT  landuse3
END continuous  FILEOUT  .\obs\evt_flow.csv

