# File generated by Flopy version 3.3.3 on 04/14/2021 at 16:24:14.
BEGIN options
  BOUNDNAMES
  OBS6  FILEIN  model.chd.obs
END options

BEGIN dimensions
  MAXBOUND  396
END dimensions

BEGIN period  1
  1 4307      83.00000000  river-bc
  1 4301      83.00000000  river-bc
  1 4306      83.00000000  river-bc
  1 4303      83.00000000  river-bc
  1 4304      83.00000000  river-bc
  1 4253      83.00000000  river-bc
  1 4299      83.00000000  river-bc
  1 4256      83.00000000  river-bc
  1 4300      83.00000000  river-bc
  1 4258      83.00000000  river-bc
  1 4297      83.00000000  river-bc
  1 4295      83.00000000  river-bc
  1 4204      83.00000000  river-bc
  1 4251      83.00000000  river-bc
  1 4241      83.00000000  river-bc
  1 4248      83.00000000  river-bc
  1 4243      83.00000000  river-bc
  1 4246      83.00000000  river-bc
  1 4187      83.00000000  river-bc
  1 4202      83.00000000  river-bc
  1 4190      83.00000000  river-bc
  1 4199      83.00000000  river-bc
  1 4192      83.00000000  river-bc
  1 4197      83.00000000  river-bc
  1 4145      83.00000000  river-bc
  1 4194      83.00000000  river-bc
  1 4146      83.00000000  river-bc
  1 4193      83.00000000  river-bc
  1 4147      83.00000000  river-bc
  1 4148      83.00000000  river-bc
  1 4095      83.00000000  river-bc
  1 4140      83.00000000  river-bc
  1 4097      83.00000000  river-bc
  1 4139      83.00000000  river-bc
  1 4137      83.00000000  river-bc
  1 4138      83.00000000  river-bc
  1 4136      83.00000000  river-bc
  1 4079      83.00000000  river-bc
  1 4093      83.00000000  river-bc
  1 4081      83.00000000  river-bc
  1 4091      83.00000000  river-bc
  1 4083      83.00000000  river-bc
  1 4085      83.00000000  river-bc
  1 4025      83.00000000  river-bc
  1 4037      83.00000000  river-bc
  1 4026      83.00000000  river-bc
  1 4039      83.00000000  river-bc
  1 4032      83.00000000  river-bc
  1 4038      83.00000000  river-bc
  1 4033      83.00000000  river-bc
  1 3972      83.00000000  river-bc
  1 4022      83.00000000  river-bc
  1 3974      83.00000000  river-bc
  1 4023      83.00000000  river-bc
  1 3977      83.00000000  river-bc
  1 4021      83.00000000  river-bc
  1 3979      83.00000000  river-bc
  1 3927      83.00000000  river-bc
  1 3968      83.00000000  river-bc
  1 3929      83.00000000  river-bc
  1 3983      83.00000000  river-bc
  1 3928      83.00000000  river-bc
  1 3982      83.00000000  river-bc
  1 3980      83.00000000  river-bc
  1 3981      83.00000000  river-bc
  1 3917      83.00000000  river-bc
  1 3924      83.00000000  river-bc
  1 3919      83.00000000  river-bc
  1 3922      83.00000000  river-bc
  1 3920      83.00000000  river-bc
  1 3925      83.00000000  river-bc
  1 3865      83.00000000  river-bc
  1 3915      83.00000000  river-bc
  1 3864      83.00000000  river-bc
  1 3916      83.00000000  river-bc
  1 3873      83.00000000  river-bc
  1 3872      83.00000000  river-bc
  1 3874      83.00000000  river-bc
  1 3870      83.00000000  river-bc
  1 3875      83.00000000  river-bc
  1 3802      83.00000000  river-bc
  1 3863      83.00000000  river-bc
  1 3804      83.00000000  river-bc
  1 3859      83.00000000  river-bc
  1 3803      83.00000000  river-bc
  1 3861      83.00000000  river-bc
  1 3860      83.00000000  river-bc
  1 3809      83.00000000  river-bc
  1 3799      83.00000000  river-bc
  1 3810      83.00000000  river-bc
  1 3816      83.00000000  river-bc
  1 3808      83.00000000  river-bc
  1 3815      83.00000000  river-bc
  1 3812      83.00000000  river-bc
  1 3813      83.00000000  river-bc
  1 3814      83.00000000  river-bc
  1 3744      83.00000000  river-bc
  1 3753      83.00000000  river-bc
  1 3743      83.00000000  river-bc
  1 3754      83.00000000  river-bc
  1 3755      83.00000000  river-bc
  1 3752      83.00000000  river-bc
  1 3756      83.00000000  river-bc
  1 3749      83.00000000  river-bc
  1 3680      83.00000000  river-bc
  1 3742      83.00000000  river-bc
  1 3682      83.00000000  river-bc
  1 3738      83.00000000  river-bc
  1 3681      83.00000000  river-bc
  1 3740      83.00000000  river-bc
  1 3739      83.00000000  river-bc
  1 3687      83.00000000  river-bc
  1 3677      83.00000000  river-bc
  1 3688      83.00000000  river-bc
  1 3694      83.00000000  river-bc
  1 3686      83.00000000  river-bc
  1 3693      83.00000000  river-bc
  1 3690      83.00000000  river-bc
  1 3691      83.00000000  river-bc
  1 3692      83.00000000  river-bc
  1 3623      83.00000000  river-bc
  1 3632      83.00000000  river-bc
  1 3633      83.00000000  river-bc
  1 3630      83.00000000  river-bc
  1 3626      83.00000000  river-bc
  1 3631      83.00000000  river-bc
  1 3628      83.00000000  river-bc
  1 3571      83.00000000  river-bc
  1 3622      83.00000000  river-bc
  1 3575      83.00000000  river-bc
  1 3621      83.00000000  river-bc
  1 3577      83.00000000  river-bc
  1 3619      83.00000000  river-bc
  1 3620      83.00000000  river-bc
  1 3517      83.00000000  river-bc
  1 3573      83.00000000  river-bc
  1 3559      83.00000000  river-bc
  1 3572      83.00000000  river-bc
  1 3558      83.00000000  river-bc
  1 3563      83.00000000  river-bc
  1 3560      83.00000000  river-bc
  1 3562      83.00000000  river-bc
  1 3501      83.00000000  river-bc
  1 3515      83.00000000  river-bc
  1 3504      83.00000000  river-bc
  1 3512      83.00000000  river-bc
  1 3506      83.00000000  river-bc
  1 3510      83.00000000  river-bc
  1 3457      83.00000000  river-bc
  1 3499      83.00000000  river-bc
  1 3458      83.00000000  river-bc
  1 3518      83.00000000  river-bc
  1 3459      83.00000000  river-bc
  1 3461      83.00000000  river-bc
  1 3460      83.00000000  river-bc
  1 3408      83.00000000  river-bc
  1 3456      83.00000000  river-bc
  1 3409      83.00000000  river-bc
  1 3455      83.00000000  river-bc
  1 3454      83.00000000  river-bc
  1 3402      83.00000000  river-bc
  1 3407      83.00000000  river-bc
  1 3403      83.00000000  river-bc
  1 3406      83.00000000  river-bc
  1 3404      83.00000000  river-bc
  1 3405      83.00000000  river-bc
  1 3319      83.00000000  river-bc
  1 3324      83.00000000  river-bc
  1 3320      83.00000000  river-bc
  1 3323      83.00000000  river-bc
  1 3321      83.00000000  river-bc
  1 3322      83.00000000  river-bc
  1 2889      83.00000000  river-bc
  1 3317      83.00000000  river-bc
  1 2891      83.00000000  river-bc
  1 3318      83.00000000  river-bc
  1 2893      83.00000000  river-bc
  1 3316      83.00000000  river-bc
  1 2895      83.00000000  river-bc
  1 2461      83.00000000  river-bc
  1 2887      83.00000000  river-bc
  1 2463      83.00000000  river-bc
  1 2885      83.00000000  river-bc
  1 2881      83.00000000  river-bc
  1 2883      83.00000000  river-bc
  1 2451      83.00000000  river-bc
  1 2459      83.00000000  river-bc
  1 2448      83.00000000  river-bc
  1 2457      83.00000000  river-bc
  1 2450      83.00000000  river-bc
  1 2455      83.00000000  river-bc
  1 2453      83.00000000  river-bc
  1 2020      83.00000000  river-bc
  1 2027      83.00000000  river-bc
  1 2021      83.00000000  river-bc
  1 2026      83.00000000  river-bc
  1 2023      83.00000000  river-bc
  1 2024      83.00000000  river-bc
  1 1682      83.00000000  river-bc
  1 2017      83.00000000  river-bc
  1 1684      83.00000000  river-bc
  1 2018      83.00000000  river-bc
  1 1687      83.00000000  river-bc
  1 2016      83.00000000  river-bc
  1 1689      83.00000000  river-bc
  1 1354      83.00000000  river-bc
  1 1690      83.00000000  river-bc
  1 1356      83.00000000  river-bc
  1 1679      83.00000000  river-bc
  1 1676      83.00000000  river-bc
  1 1678      83.00000000  river-bc
  1 1675      83.00000000  river-bc
  1 1677      83.00000000  river-bc
  1 1338      83.00000000  river-bc
  1 1350      83.00000000  river-bc
  1 1341      83.00000000  river-bc
  1 1352      83.00000000  river-bc
  1 1340      83.00000000  river-bc
  1 1351      83.00000000  river-bc
  1 1342      83.00000000  river-bc
  1 1178      83.00000000  river-bc
  1 1336      83.00000000  river-bc
  1 1182      83.00000000  river-bc
  1 1169      83.00000000  river-bc
  1 1184      83.00000000  river-bc
  1 1186      83.00000000  river-bc
  1 1183      83.00000000  river-bc
  1 1185      83.00000000  river-bc
  1 1009      83.00000000  river-bc
  1 1180      83.00000000  river-bc
  1 1010      83.00000000  river-bc
  1 1179      83.00000000  river-bc
  1 1005      83.00000000  river-bc
  1 1173      83.00000000  river-bc
  1 1172      83.00000000  river-bc
  1 1174      83.00000000  river-bc
  1 992      83.00000000  river-bc
  1 1008      83.00000000  river-bc
  1 998      83.00000000  river-bc
  1 1006      83.00000000  river-bc
  1 995      83.00000000  river-bc
  1 1007      83.00000000  river-bc
  1 997      83.00000000  river-bc
  1 928      83.00000000  river-bc
  1 993      83.00000000  river-bc
  1 932      83.00000000  river-bc
  1 991      83.00000000  river-bc
  1 934      83.00000000  river-bc
  1 919      83.00000000  river-bc
  1 933      83.00000000  river-bc
  1 936      83.00000000  river-bc
  1 935      83.00000000  river-bc
  1 869      83.00000000  river-bc
  1 930      83.00000000  river-bc
  1 870      83.00000000  river-bc
  1 929      83.00000000  river-bc
  1 864      83.00000000  river-bc
  1 923      83.00000000  river-bc
  1 922      83.00000000  river-bc
  1 924      83.00000000  river-bc
  1 850      83.00000000  river-bc
  1 867      83.00000000  river-bc
  1 856      83.00000000  river-bc
  1 868      83.00000000  river-bc
  1 857      83.00000000  river-bc
  1 866      83.00000000  river-bc
  1 855      83.00000000  river-bc
  1 797      83.00000000  river-bc
  1 851      83.00000000  river-bc
  1 800      83.00000000  river-bc
  1 849      83.00000000  river-bc
  1 799      83.00000000  river-bc
  1 790      83.00000000  river-bc
  1 801      83.00000000  river-bc
  1 788      83.00000000  river-bc
  1 802      83.00000000  river-bc
  1 737      83.00000000  river-bc
  1 795      83.00000000  river-bc
  1 739      83.00000000  river-bc
  1 798      83.00000000  river-bc
  1 738      83.00000000  river-bc
  1 793      83.00000000  river-bc
  1 792      83.00000000  river-bc
  1 726      83.00000000  river-bc
  1 734      83.00000000  river-bc
  1 725      83.00000000  river-bc
  1 732      83.00000000  river-bc
  1 727      83.00000000  river-bc
  1 740      83.00000000  river-bc
  1 728      83.00000000  river-bc
  1 729      83.00000000  river-bc
  1 667      83.00000000  river-bc
  1 679      83.00000000  river-bc
  1 664      83.00000000  river-bc
  1 677      83.00000000  river-bc
  1 666      83.00000000  river-bc
  1 675      83.00000000  river-bc
  1 673      83.00000000  river-bc
  1 610      83.00000000  river-bc
  1 662      83.00000000  river-bc
  1 611      83.00000000  river-bc
  1 661      83.00000000  river-bc
  1 613      83.00000000  river-bc
  1 614      83.00000000  river-bc
  1 551      83.00000000  river-bc
  1 607      83.00000000  river-bc
  1 553      83.00000000  river-bc
  1 606      83.00000000  river-bc
  1 600      83.00000000  river-bc
  1 604      83.00000000  river-bc
  1 603      83.00000000  river-bc
  1 535      83.00000000  river-bc
  1 549      83.00000000  river-bc
  1 537      83.00000000  river-bc
  1 547      83.00000000  river-bc
  1 539      83.00000000  river-bc
  1 541      83.00000000  river-bc
  1 479      83.00000000  river-bc
  1 534      83.00000000  river-bc
  1 480      83.00000000  river-bc
  1 488      83.00000000  river-bc
  1 485      83.00000000  river-bc
  1 487      83.00000000  river-bc
  1 486      83.00000000  river-bc
  1 424      83.00000000  river-bc
  1 477      83.00000000  river-bc
  1 426      83.00000000  river-bc
  1 474      83.00000000  river-bc
  1 427      83.00000000  river-bc
  1 472      83.00000000  river-bc
  1 428      83.00000000  river-bc
  1 367      83.00000000  river-bc
  1 423      83.00000000  river-bc
  1 413      83.00000000  river-bc
  1 421      83.00000000  river-bc
  1 415      83.00000000  river-bc
  1 420      83.00000000  river-bc
  1 417      83.00000000  river-bc
  1 358      83.00000000  river-bc
  1 365      83.00000000  river-bc
  1 359      83.00000000  river-bc
  1 363      83.00000000  river-bc
  1 360      83.00000000  river-bc
  1 362      83.00000000  river-bc
  1 361      83.00000000  river-bc
  1 295      83.00000000  river-bc
  1 357      83.00000000  river-bc
  1 299      83.00000000  river-bc
  1 347      83.00000000  river-bc
  1 301      83.00000000  river-bc
  1 306      83.00000000  river-bc
  1 304      83.00000000  river-bc
  1 241      83.00000000  river-bc
  1 293      83.00000000  river-bc
  1 244      83.00000000  river-bc
  1 290      83.00000000  river-bc
  1 246      83.00000000  river-bc
  1 288      83.00000000  river-bc
  1 247      83.00000000  river-bc
  1 239      83.00000000  river-bc
  1 228      83.00000000  river-bc
  1 235      83.00000000  river-bc
  1 230      83.00000000  river-bc
  1 233      83.00000000  river-bc
  1 181      83.00000000  river-bc
  1 187      83.00000000  river-bc
  1 183      83.00000000  river-bc
  1 186      83.00000000  river-bc
  1 182      83.00000000  river-bc
  1 185      83.00000000  river-bc
  1 184      83.00000000  river-bc
  1 122      83.00000000  river-bc
  1 178      83.00000000  river-bc
  1 124      83.00000000  river-bc
  1 176      83.00000000  river-bc
  1 123      83.00000000  river-bc
  1 179      83.00000000  river-bc
  1 126      83.00000000  river-bc
  1 127      83.00000000  river-bc
  1 64      83.00000000  river-bc
  1 116      83.00000000  river-bc
  1 66      83.00000000  river-bc
  1 114      83.00000000  river-bc
  1 65      83.00000000  river-bc
  1 119      83.00000000  river-bc
  1 117      83.00000000  river-bc
  1 118      83.00000000  river-bc
  1 50      83.00000000  river-bc
  1 60      83.00000000  river-bc
  1 52      83.00000000  river-bc
  1 62      83.00000000  river-bc
  1 51      83.00000000  river-bc
  1 61      83.00000000  river-bc
  1 67      83.00000000  river-bc
  1 47      83.00000000  river-bc
  1 68      83.00000000  river-bc
END period  1

