# File generated by Flopy version 3.3.3 on 11/20/2020 at 14:03:43.
BEGIN options
  BOUNDNAMES
  OBS6  FILEIN  model.drn.obs
END options

BEGIN dimensions
  MAXBOUND  553
END dimensions

BEGIN period  1
    OPEN/CLOSE  'model.drn_stress_period_data_1.txt'
END period  1

