# File generated by Flopy version 3.3.3 on 04/14/2021 at 16:24:14.
BEGIN options
  DIGITS  9
END options

BEGIN continuous  FILEOUT  .\obs\rch_flow.csv
  rch-1  RCH  landuse1
  rch-2  RCH  landuse2
  rch-3  RCH  landuse3
END continuous  FILEOUT  .\obs\rch_flow.csv

