# MODFLOW-USGs Recharge Package
 3 50
 1
external   33   1.0   (free)     -1     recharge
