# MODFLOW-USGs River Package
 1783 50
 1783 0    Stress Period 1
$#p  replace_column(plist=riv_head;startpos=10;endpos=27,           &
$#p                 plist=riv_cond;startpos=30;endpos=47,           &
$#p                 plist=riv_bot; startpos=50;endpos=67,           &
$#p                 intidcolumn=1,tablelength=1783)
 19684     252.728308         1.080000e+01         251.728308 0
 20004     250.735800         7.350000e+00         249.735800 0
 33796     235.829573         9.075000e+03         234.829573 0
 33797     235.768248         3.757500e+04         234.768248 0
 33798     235.725263         3.750000e+04         234.725263 0
 33799     235.687421         3.885000e+04         234.687421 0
 33800     235.649552         3.960000e+04         234.649552 0
 33801     235.611839         3.757500e+04         234.611839 0
 33802     235.579280         3.750000e+04         234.579280 0
 33803     235.576813         3.757500e+04         234.576813 0
 33804     235.574280         3.765000e+04         234.574280 0
 33805     235.571940         4.125000e+04         234.571940 0
 33806     235.569594         1.425000e+04         234.569594 0
 34115     235.842131         3.727500e+04         234.842131 0
 34116     235.797681         3.180000e+04         234.797681 0
 34126     235.568768         2.730000e+04         234.568768 0
 34127     235.566521         4.215000e+04         234.566521 0
 34128     239.606818         1.297500e+04         238.606818 0
 34434     236.871644         4.305000e+04         235.871644 0
 34435     240.379691         1.162500e+04         239.379691 0
 34448     235.519190         5.100000e+03         234.519190 0
 34753     236.091251         4.102500e+04         235.091251 0
 34754     239.650297         9.000000e+03         238.650297 0
 35072     236.069343         1.462500e+04         235.069343 0
 35073     236.000517         2.850000e+04         235.000517 0
 35391     238.229363         1.222500e+04         237.229363 0
 35392     237.744516         4.080000e+04         236.744516 0
 35710     240.054076         1.222500e+04         239.054076 0
 35711     238.893242         4.080000e+04         237.893242 0
 36030     240.345770         5.775000e+03         239.345770 0
 21613     242.356564         4.940000e+01         241.356564 0
 39799     250.528210         7.640000e+01         249.528210 0
 40119     255.337672         7.720000e+01         254.337672 0
 14953     254.461484         1.040000e+01         253.461484 0
 15270     252.925515         1.735000e+01         251.925515 0
 15271     253.713176         2.660000e+01         252.713176 0
 15272     254.223996         2.665000e+01         253.223996 0
 15273     253.891136         6.300000e+00         252.891136 0
 49271     231.205374         1.100000e+02         230.205374 0
 49591     231.204560         8.720000e+01         230.204560 0
 577       275.131697         7.700000e+00         274.131697 0
 40114     251.964937         1.008000e+02         250.964937 0
 40116     252.710290         9.400000e+01         251.710290 0
 40117     255.517775         1.002000e+02         254.517775 0
 40118     256.096628         1.018000e+02         255.096628 0
 40119     255.337672         3.240000e+01         254.337672 0
 40433     252.553382         2.720000e+01         251.553382 0
 40434     252.500537         1.380000e+02         251.500537 0
 40435     252.367732         1.322000e+02         251.367732 0
 40436     252.119158         4.040000e+01         251.119158 0
 40752     252.497841         1.074000e+02         251.497841 0
 40753     252.576031         7.700000e+01         251.576031 0
 41071     252.349121         1.060000e+01         251.349121 0
 41072     252.993178         9.700000e+01         251.993178 0
 41391     252.587868         1.428000e+02         251.587868 0
 41708     252.866665         5.900000e+01         251.866665 0
 41709     252.727329         1.064000e+02         251.727329 0
 41710     252.797929         1.002000e+02         251.797929 0
 42026     253.373287         1.620000e+01         252.373287 0
 42027     252.896083         1.172000e+02         251.896083 0
 42028     253.470039         5.780000e+01         252.470039 0
 42345     253.363251         9.000000e+01         252.363251 0
 42346     253.266206         1.012000e+02         252.266206 0
 42663     253.543029         4.660000e+01         252.543029 0
 42664     253.414147         1.172000e+02         252.414147 0
 42665     253.255356         2.740000e+01         252.255356 0
 42981     253.604595         9.340000e+01         252.604595 0
 42982     253.526564         1.028000e+02         252.526564 0
 42983     253.453381         6.620000e+01         252.453381 0
 43253     262.388749         1.020000e+01         261.388749 0
 43254     262.719137         1.034000e+02         261.719137 0
 43255     262.852409         4.180000e+01         261.852409 0
 43299     253.847079         2.740000e+01         252.847079 0
 43300     253.544104         1.216000e+02         252.544104 0
 43301     253.707139         2.680000e+01         252.707139 0
 43572     262.346399         4.460000e+01         261.346399 0
 43573     261.650926         1.170000e+02         260.650926 0
 43575     261.306331         6.260000e+01         260.306331 0
 43576     265.706527         1.050000e+02         264.706527 0
 43577     264.674931         1.010000e+02         263.674931 0
 43578     262.484932         1.006000e+02         261.484932 0
 43579     261.858139         1.080000e+02         260.858139 0
 43580     261.903000         1.580000e+01         260.903000 0
 43618     254.116721         8.600000e+01         253.116721 0
 43619     253.851633         9.340000e+01         252.851633 0
 43891     262.974517         7.920000e+01         261.974517 0
 43892     262.386246         8.260000e+01         261.386246 0
 43900     261.722248         1.248000e+02         260.722248 0
 43901     261.012459         1.360000e+01         260.012459 0
 43937     253.726343         1.276000e+02         252.726343 0
 43938     253.622847         3.400000e+01         252.622847 0
 44210     263.428091         7.760000e+01         262.428091 0
 44211     263.308822         5.200000e+01         262.308822 0
 44221     260.857348         1.060000e+02         259.857348 0
 44222     261.213121         1.038000e+02         260.213121 0
 44223     260.982132         5.920000e+01         259.982132 0
 44256     254.023035         1.260000e+02         253.023035 0
 44529     263.212109         5.760000e+01         262.212109 0
 44530     263.686808         8.340000e+01         262.686808 0
 44543     260.511924         1.114000e+02         259.511924 0
 44575     254.107658         8.680000e+01         253.107658 0
 44576     253.929709         3.600000e+01         252.929709 0
 44848     269.374234         5.680000e+01         268.374234 0
 44849     264.065679         8.420000e+01         263.065679 0
 44863     259.503655         1.000000e+02         258.503655 0
 44894     254.196921         4.340000e+01         253.196921 0
 44895     254.006848         8.420000e+01         253.006848 0
 45167     268.644735         9.180000e+01         267.644735 0
 45168     271.382666         7.860000e+01         270.382666 0
 45183     259.414992         3.180000e+01         258.414992 0
 45184     261.118616         7.520000e+01         260.118616 0
 45213     254.427949         3.100000e+01         253.427949 0
 45214     254.384948         1.046000e+02         253.384948 0
 45485     267.795934         1.096000e+02         266.795934 0
 45486     268.929948         1.094000e+02         267.929948 0
 45487     266.334471         2.520000e+01         265.334471 0
 45504     260.776827         1.220000e+02         259.776827 0
 45532     255.068818         3.880000e+01         254.068818 0
 45533     254.097815         1.094000e+02         253.097815 0
 45803     267.126933         7.560000e+01         266.126933 0
 45804     267.218125         1.164000e+02         266.218125 0
 45825     260.316450         1.236000e+02         259.316450 0
 45851     258.085875         9.720000e+01         257.085875 0
 45852     254.172144         8.480000e+01         253.172144 0
 46122     267.839813         1.136000e+02         266.839813 0
 46123     267.391626         4.240000e+01         266.391626 0
 46145     259.874640         4.500000e+01         258.874640 0
 46146     259.063786         8.980000e+01         258.063786 0
 46169     255.926032         1.020000e+01         254.926032 0
 46170     255.740206         1.294000e+02         254.740206 0
 46171     255.890967         2.120000e+01         254.890967 0
 46441     269.851592         9.200000e+01         268.851592 0
 46442     269.687953         3.200000e+01         268.687953 0
 46466     259.423238         5.040000e+01         258.423238 0
 46467     258.912608         1.166000e+02         257.912608 0
 46468     259.174461         1.280000e+01         258.174461 0
 46488     256.580453         3.840000e+01         255.580453 0
 46489     255.930843         1.192000e+02         254.930843 0
 46760     279.776748         1.080000e+01         278.776748 0
 46761     275.225747         1.010000e+02         274.225747 0
 46788     258.016658         1.010000e+02         257.016658 0
 46789     258.923547         7.140000e+01         257.923547 0
 46792     258.020012         7.860000e+01         257.020012 0
 46793     257.862977         1.010000e+02         256.862977 0
 46794     257.125545         1.000000e+02         256.125545 0
 46795     258.467485         1.002000e+02         257.467485 0
 46796     257.114157         6.960000e+01         256.114157 0
 46807     256.349114         6.660000e+01         255.349114 0
 46808     255.860931         9.100000e+01         254.860931 0
 47080     276.768434         1.050000e+02         275.768434 0
 47109     258.102369         6.520000e+01         257.102369 0
 47110     256.869238         1.040000e+02         255.869238 0
 47111     257.140775         1.066000e+02         256.140775 0
 47112     257.841695         2.280000e+01         256.841695 0
 47116     256.952796         3.620000e+01         255.952796 0
 47117     257.780403         1.328000e+02         256.780403 0
 47126     255.971752         9.460000e+01         254.971752 0
 47127     255.785996         6.280000e+01         254.785996 0
 47438     258.242337         1.336000e+02         257.242337 0
 47445     255.887283         1.228000e+02         254.887283 0
 47446     255.883254         3.480000e+01         254.883254 0
 47759     257.148023         1.274000e+02         256.148023 0
 47760     257.232256         2.700000e+01         256.232256 0
 47763     256.187681         6.700000e+01         255.187681 0
 47764     255.907940         1.200000e+02         254.907940 0
 48080     256.870698         8.500000e+01         255.870698 0
 48081     256.517461         1.018000e+02         255.517461 0
 48082     256.727582         1.046000e+02         255.727582 0
 48083     255.887695         4.380000e+01         254.887695 0
 40119     255.337672         5.950000e+00         254.337672 0
 40439     251.935044         5.500000e+00         250.935044 0
 40254     233.131677         1.695000e+01         232.131677 0
 40255     232.914657         1.170000e+01         231.914657 0
 9357      249.900785         1.920000e+01         248.900785 0
 6482      254.845495         1.140000e+01         253.845495 0
 6483      254.870105         2.825000e+01         253.870105 0
 6484      255.253785         1.275000e+01         254.253785 0
 6801      254.954647         2.640000e+01         253.954647 0
 6802      256.670585         1.865000e+01         255.670585 0
 7119      254.627100         1.140000e+01         253.627100 0
 7120      253.116697         3.005000e+01         252.116697 0
 7121      254.085980         3.650000e+00         253.085980 0
 7438      252.754666         2.620000e+01         251.754666 0
 7439      252.352702         1.865000e+01         251.352702 0
 7757      252.471204         2.465000e+01         251.471204 0
 7758      255.878895         4.600000e+00         254.878895 0
 8077      252.459890         2.570000e+01         251.459890 0
 8397      251.555619         2.555000e+01         250.555619 0
 8717      250.527957         3.650000e+00         249.527957 0
 8718      253.719010         1.300000e+01         252.719010 0
 8718      253.719010         8.450000e+00         252.719010 0
 9037      251.755506         1.670000e+01         250.755506 0
 9038      250.997064         9.050000e+00         249.997064 0
 9357      249.900785         2.190000e+01         248.900785 0
 14286     250.680297         2.540000e+01         249.680297 0
 14287     250.776045         1.026000e+02         249.776045 0
 14288     250.764528         6.700000e+01         249.764528 0
 14600     249.485767         6.340000e+01         248.485767 0
 14601     249.396282         1.014000e+02         248.396282 0
 14602     253.295940         1.016000e+02         252.295940 0
 14603     253.333317         1.014000e+02         252.333317 0
 14604     249.752711         1.012000e+02         248.752711 0
 14605     250.123934         1.008000e+02         249.123934 0
 14606     250.240248         7.540000e+01         249.240248 0
 14912     252.881423         1.048000e+02         251.881423 0
 14913     254.696042         1.000000e+02         253.696042 0
 14914     248.390671         1.000000e+02         247.390671 0
 14915     248.917986         1.000000e+02         247.917986 0
 14916     249.354128         1.004000e+02         248.354128 0
 14917     249.271725         1.016000e+02         248.271725 0
 14918     249.587465         1.014000e+02         248.587465 0
 14919     249.638952         1.014000e+02         248.638952 0
 14920     249.717132         3.800000e+01         248.717132 0
 15231     248.190918         1.004000e+02         247.190918 0
 15232     248.363275         1.140000e+01         247.363275 0
 15551     248.673445         1.088000e+02         247.673445 0
 15868     247.905700         5.160000e+01         246.905700 0
 15869     247.981064         1.016000e+02         246.981064 0
 15870     248.269142         1.054000e+02         247.269142 0
 15871     248.180404         3.560000e+01         247.180404 0
 16187     247.571438         7.960000e+01         246.571438 0
 16188     248.058678         6.760000e+01         247.058678 0
 16507     247.407495         1.012000e+02         246.407495 0
 16826     247.052419         8.980000e+01         246.052419 0
 16827     246.585300         7.140000e+01         245.585300 0
 17146     246.506288         1.740000e+01         245.506288 0
 3292      263.025746         2.500000e+01         262.025746 0
 24404     249.566072         1.132500e+04         248.566072 0
 24724     249.619447         3.945000e+04         248.619447 0
 25043     249.853503         1.477500e+04         248.853503 0
 25044     253.830011         3.090000e+04         252.830011 0
 25361     253.941767         1.020000e+04         252.941767 0
 25362     250.038841         3.990000e+04         249.038841 0
 25363     250.360400         3.540000e+04         249.360400 0
 25678     250.610828         3.150000e+04         249.610828 0
 25679     250.469390         3.750000e+04         249.469390 0
 25680     250.328625         3.750000e+04         249.328625 0
 25681     250.198276         2.850000e+04         249.198276 0
 22894     241.811919         1.792500e+04         240.811919 0
 23212     239.890862         3.705000e+04         238.890862 0
 23213     239.821588         4.177500e+04         238.821588 0
 23214     239.771442         6.300000e+03         238.771442 0
 23530     241.449472         3.855000e+04         240.449472 0
 23531     239.960407         4.177500e+04         238.960407 0
 23532     239.888388         4.725000e+03         238.888388 0
 23848     243.095142         4.012500e+04         242.095142 0
 23849     240.092078         4.177500e+04         239.092078 0
 24140     242.187281         2.347500e+04         241.187281 0
 24141     242.109586         3.780000e+04         241.109586 0
 24142     246.677865         1.155000e+04         245.677865 0
 24164     245.598894         1.927500e+04         244.598894 0
 24165     244.631965         3.892500e+04         243.631965 0
 24166     240.313774         3.900000e+04         239.313774 0
 24167     240.216040         3.892500e+04         239.216040 0
 24462     242.059869         2.625000e+04         241.059869 0
 24463     242.925510         4.950000e+04         241.925510 0
 24469     241.485447         2.475000e+04         240.485447 0
 24470     242.046537         3.750000e+04         241.046537 0
 24471     242.452438         3.757500e+04         241.452438 0
 24472     244.175645         3.750000e+04         243.175645 0
 24473     247.844418         9.825000e+03         246.844418 0
 24481     245.712984         3.892500e+04         244.712984 0
 24482     245.072545         3.892500e+04         244.072545 0
 24483     241.442619         3.892500e+04         240.442619 0
 24484     240.403221         1.965000e+04         239.403221 0
 24783     241.928249         5.025000e+03         240.928249 0
 24784     245.968559         5.122500e+04         244.968559 0
 24785     246.123226         3.757500e+04         245.123226 0
 24786     242.689011         3.757500e+04         241.689011 0
 24787     243.992248         3.757500e+04         242.992248 0
 24788     242.759874         4.215000e+04         241.759874 0
 24789     243.012206         1.897500e+04         242.012206 0
 24793     241.143054         2.775000e+04         240.143054 0
 24794     241.018906         3.750000e+04         240.018906 0
 24795     240.932844         3.757500e+04         239.932844 0
 24796     242.080395         3.750000e+04         241.080395 0
 24797     243.727898         3.757500e+04         242.727898 0
 24798     242.893830         3.750000e+04         241.893830 0
 24799     241.082052         3.780000e+04         240.082052 0
 24800     240.642773         3.600000e+04         239.642773 0
 10965     250.944077         7.820000e+01         249.944077 0
 10966     251.472156         1.076000e+02         250.472156 0
 10967     251.304723         1.166000e+02         250.304723 0
 10968     251.171734         8.860000e+01         250.171734 0
 11288     250.730674         1.008000e+02         249.730674 0
 11608     250.346391         1.004000e+02         249.346391 0
 11928     250.260968         1.004000e+02         249.260968 0
 12248     250.805942         1.022000e+02         249.805942 0
 12568     249.634362         1.002000e+02         248.634362 0
 12888     249.259344         1.092000e+02         248.259344 0
 13207     249.498256         1.098000e+02         248.498256 0
 13208     250.311290         2.200000e+01         249.311290 0
 13526     250.336369         8.340000e+01         249.336369 0
 13527     249.822061         4.200000e+01         248.822061 0
 13846     250.232860         1.088000e+02         249.232860 0
 14165     249.258089         6.100000e+01         248.258089 0
 14166     249.549704         4.140000e+01         248.549704 0
 14486     250.509866         1.226000e+02         249.509866 0
 14806     248.952465         3.520000e+01         247.952465 0
 14807     250.376273         1.250000e+02         249.376273 0
 15127     251.036196         1.034000e+02         250.036196 0
 15447     250.235374         1.104000e+02         249.235374 0
 15766     249.081412         7.420000e+01         248.081412 0
 15767     248.895774         4.300000e+01         247.895774 0
 16086     249.681800         1.080000e+02         248.681800 0
 16406     249.705796         1.002000e+02         248.705796 0
 16407     249.805925         1.008000e+02         248.805925 0
 16408     249.009759         1.014000e+02         248.009759 0
 16409     249.251437         1.422000e+02         248.251437 0
 16729     249.780335         2.240000e+01         248.780335 0
 16730     249.826383         7.820000e+01         248.826383 0
 17050     249.181083         1.156000e+02         248.181083 0
 17370     248.758057         6.300000e+01         247.758057 0
 17371     249.286707         9.380000e+01         248.286707 0
 17372     248.443260         1.152000e+02         247.443260 0
 17373     248.711350         2.480000e+01         247.711350 0
 22024     250.186020         1.975000e+01         249.186020 0
 22025     250.175524         2.520000e+01         249.175524 0
 22026     250.806141         2.515000e+01         249.806141 0
 22340     252.319059         2.500000e+01         251.319059 0
 22341     250.238539         2.535000e+01         249.238539 0
 22342     250.223051         2.520000e+01         249.223051 0
 22343     250.221848         2.515000e+01         249.221848 0
 22344     250.247298         5.400000e+00         249.247298 0
 22659     256.383703         2.640000e+01         255.383703 0
 22660     250.750626         6.750000e+00         249.750626 0
 22978     255.648805         1.485000e+01         254.648805 0
 22979     250.718043         1.480000e+01         249.718043 0
 23298     251.047420         2.845000e+01         250.047420 0
 23617     252.644276         1.650000e+01         251.644276 0
 23618     254.289975         1.060000e+01         253.289975 0
 23937     249.883008         2.670000e+01         248.883008 0
 24256     249.875079         2.165000e+01         248.875079 0
 24257     255.156487         1.555000e+01         254.156487 0
 24575     251.355967         3.185000e+01         250.355967 0
 24576     252.058161         9.250000e+00         251.058161 0
 24894     248.819550         3.065000e+01         247.819550 0
 25214     249.451203         2.595000e+01         248.451203 0
 25534     248.837544         2.715000e+01         247.837544 0
 25854     248.220807         1.795000e+01         247.220807 0
 25855     249.053333         9.150000e+00         248.053333 0
 26175     249.382360         2.675000e+01         248.382360 0
 26495     248.873467         2.600000e+01         247.873467 0
 26815     246.576405         1.280000e+01         245.576405 0
 26816     248.324303         1.575000e+01         247.324303 0
 27136     248.369096         2.900000e+01         247.369096 0
 27456     245.620774         5.500000e+00         244.620774 0
 27457     248.045475         2.120000e+01         247.045475 0
 27777     246.608045         2.600000e+01         245.608045 0
 28097     244.837626         2.605000e+01         243.837626 0
 28417     244.610595         1.130000e+01         243.610595 0
 28418     245.090027         1.470000e+01         244.090027 0
 28738     244.139886         2.605000e+01         243.139886 0
 29058     244.825560         2.600000e+01         243.825560 0
 29378     242.601432         2.565000e+01         241.601432 0
 29698     242.612459         2.835000e+01         241.612459 0
 30017     242.370572         2.465000e+01         241.370572 0
 30018     243.262927         1.565000e+01         242.262927 0
 30336     245.787533         2.235000e+01         244.787533 0
 30337     241.925810         6.000000e+00         240.925810 0
 30656     241.908518         2.600000e+01         240.908518 0
 30975     241.335302         7.750000e+00         240.335302 0
 30976     243.140195         2.315000e+01         242.140195 0
 31295     241.155028         3.650000e+00         240.155028 0
 26451     242.356906         9.550000e+00         241.356906 0
 26452     241.834061         6.300000e+00         240.834061 0
 26769     241.233634         5.750000e+00         240.233634 0
 26770     241.112175         2.500000e+01         240.112175 0
 26771     241.232087         1.890000e+01         240.232087 0
 51832     245.678966         3.300000e+01         244.678966 0
 52153     250.328903         1.392000e+02         249.328903 0
 52474     250.328903         1.210000e+02         249.328903 0
 52794     250.328903         1.016000e+02         249.328903 0
 53114     250.328903         1.014000e+02         249.328903 0
 53434     250.328903         1.004000e+02         249.328903 0
 53754     250.328903         1.002000e+02         249.328903 0
 54074     250.328903         1.092000e+02         249.328903 0
 54393     250.328903         1.920000e+01         249.328903 0
 54394     250.328903         1.000000e+02         249.328903 0
 54713     250.328903         1.108000e+02         249.328903 0
 55033     250.328903         1.010000e+02         249.328903 0
 55353     250.328903         1.010000e+02         249.328903 0
 55673     250.328903         1.276000e+02         249.328903 0
 40255     232.914657         2.025000e+04         231.914657 0
 40256     232.899169         3.750000e+04         231.899169 0
 40257     232.887202         4.192500e+04         231.887202 0
 40578     232.875656         4.155000e+04         231.875656 0
 40579     232.861525         2.715000e+04         231.861525 0
 40899     232.863084         1.762500e+04         231.863084 0
 40900     232.850226         4.087500e+04         231.850226 0
 40901     232.838624         3.270000e+04         231.838624 0
 41221     232.838999         7.500000e+03         231.838999 0
 41222     232.827979         4.027500e+04         231.827979 0
 41223     232.817562         4.027500e+04         231.817562 0
 41224     232.807531         1.522500e+04         231.807531 0
 41544     232.805194         2.497500e+04         231.805194 0
 41545     232.794992         4.027500e+04         231.794992 0
 41546     232.785115         3.802500e+04         231.785115 0
 41867     232.764123         4.027500e+04         231.764123 0
 41868     232.745693         4.027500e+04         231.745693 0
 41869     232.733766         2.392500e+04         231.733766 0
 42189     232.731880         1.515000e+04         231.731880 0
 42190     232.725980         3.847500e+04         231.725980 0
 42191     232.720401         3.847500e+04         231.720401 0
 42192     232.714907         3.847500e+04         231.714907 0
 42193     234.175921         3.810000e+04         233.175921 0
 42194     233.579094         3.757500e+04         232.579094 0
 42195     232.696270         3.765000e+04         231.696270 0
 42196     232.689383         4.012500e+04         231.689383 0
 42197     234.717024         7.575000e+03         233.717024 0
 42517     232.681033         4.612500e+04         231.681033 0
 42518     233.194191         5.325000e+03         232.194191 0
 42838     232.672469         4.680000e+04         231.672469 0
 43158     232.669727         1.072500e+04         231.669727 0
 43159     232.663192         3.600000e+04         231.663192 0
 43479     232.660138         2.677500e+04         231.660138 0
 43480     236.202744         1.995000e+04         235.202744 0
 43800     232.650581         4.290000e+04         231.650581 0
 43801     241.331047         3.900000e+03         240.331047 0
 44121     232.641698         4.305000e+04         231.641698 0
 44441     232.637892         4.020000e+04         231.637892 0
 44762     232.628721         4.035000e+04         231.628721 0
 44776     231.903171         3.442500e+04         230.903171 0
 44777     231.855118         3.817500e+04         230.855118 0
 44778     231.822434         3.810000e+04         230.822434 0
 44779     231.801861         3.997500e+04         230.801861 0
 44780     231.783938         4.522500e+04         230.783938 0
 45082     232.623868         4.027500e+04         231.623868 0
 45095     231.938579         4.200000e+04         230.938579 0
 45096     231.883562         1.110000e+04         230.883562 0
 45101     231.736923         4.260000e+04         230.736923 0
 45102     231.710520         2.445000e+04         230.710520 0
 45402     232.619246         2.145000e+04         231.619246 0
 45403     232.615164         1.890000e+04         231.615164 0
 45414     231.992498         3.255000e+04         230.992498 0
 45415     231.927456         1.102500e+04         230.927456 0
 45422     231.686911         2.077500e+04         230.686911 0
 45423     231.662424         4.530000e+04         230.662424 0
 45723     232.610375         4.027500e+04         231.610375 0
 45734     231.987857         4.020000e+04         230.987857 0
 45744     231.618001         5.070000e+04         230.618001 0
 45745     231.592493         3.825000e+03         230.592493 0
 46043     232.605275         4.035000e+04         231.605275 0
 46053     232.065221         1.237500e+04         231.065221 0
 46054     231.989179         2.782500e+04         230.989179 0
 46065     231.573879         4.920000e+04         230.573879 0
 46066     231.547746         3.825000e+03         230.547746 0
 46364     232.596560         3.765000e+04         231.596560 0
 46373     232.070978         4.027500e+04         231.070978 0
 46386     231.530320         4.920000e+04         230.530320 0
 46387     231.502616         3.825000e+03         230.502616 0
 46684     232.587406         4.035000e+04         231.587406 0
 46693     232.079711         4.020000e+04         231.079711 0
 46707     231.485577         4.590000e+04         230.485577 0
 47004     232.926275         2.340000e+04         231.926275 0
 47005     232.580827         1.890000e+04         231.580827 0
 47012     232.175634         2.940000e+04         231.175634 0
 47013     232.087457         1.080000e+04         231.087457 0
 47027     231.467933         1.522500e+04         230.467933 0
 47028     231.436490         2.985000e+04         230.436490 0
 47325     232.563629         4.470000e+04         231.563629 0
 47332     232.193519         4.027500e+04         231.193519 0
 47348     231.415513         4.087500e+04         230.415513 0