MODPATH_ENDPOINT_FILE         7         2
    1         1         1         1   0.0000000000E+00  0.0000000000E+00  0.0000000000E+00  0.0000000000E+00
       0       0       0       0       0       1       0       0       0       0
         1
PG1             
END HEADER
         1         1         1    5  0.0000000000E+00  0.6850008394E+04       525    1  0.5000000000E+00  0.5000000000E+00  0.5000000000E+00  0.2450000000E+03  0.6950000000E+03 -0.1050000000E+03    1    0      3975    1  0.5008987297E+00  0.1000000000E+01  0.5000000000E+00  0.2450089873E+03  0.1000000000E+02 -0.1050000000E+03    1    4
