BEGIN OPTIONS
  HEAD FILEOUT   rect.hds
  BUDGET FILEOUT rect.bud
END OPTIONS

BEGIN PERIOD 1
  SAVE HEAD ALL
  SAVE BUDGET ALL
END PERIOD
