BEGIN OPTIONS
  PRINT_OPTION  summary
  COMPLEXITY simple
END OPTIONS

BEGIN NONLINEAR
  OUTER_DVCLOSE  1.0e-5
  OUTER_MAXIMUM  1000
END NONLINEAR

BEGIN LINEAR
  INNER_MAXIMUM           50
  INNER_DVCLOSE           1.0e-3
  RELAXATION_FACTOR       0.99000000
END LINEAR