MODPATH_PATHLINE_FILE         7         2
    1   0.0000000000E+00  0.0000000000E+00  0.0000000000E+00  0.0000000000E+00
END HEADER
         1         1         1        72
       525  0.24500000E+03  0.69500000E+03 -0.10500000E+03  0.00000000E+00  0.50000000E+00  0.50000000E+00  0.50000000E+00         1         1         1
       525  0.24500000E+03  0.69500000E+03 -0.10500000E+03  0.84557510-306  0.50000000E+00  0.50000000E+00  0.50000000E+00         1         1         1
       525  0.24500018E+03  0.69000000E+03 -0.10500000E+03  0.49999957E+02  0.50001834E+00  0.00000000E+00  0.50000000E+00         1         1         1
       575  0.24500055E+03  0.68000000E+03 -0.10500000E+03  0.14999989E+03  0.50005504E+00  0.00000000E+00  0.50000000E+00         1         1         1
       625  0.24500091E+03  0.67000000E+03 -0.10500000E+03  0.24999978E+03  0.50009102E+00  0.00000000E+00  0.50000000E+00         1         1         1
       675  0.24500126E+03  0.66000000E+03 -0.10500000E+03  0.34999956E+03  0.50012560E+00  0.00000000E+00  0.50000000E+00         1         1         1
       725  0.24500158E+03  0.65000000E+03 -0.10500000E+03  0.44999923E+03  0.50015826E+00  0.00000000E+00  0.50000000E+00         1         1         1
       775  0.24500189E+03  0.64000000E+03 -0.10500000E+03  0.54999877E+03  0.50018876E+00  0.00000000E+00  0.50000000E+00         1         1         1
       825  0.24500217E+03  0.63000000E+03 -0.10500000E+03  0.64999820E+03  0.50021707E+00  0.00000000E+00  0.50000000E+00         1         1         1
       875  0.24500243E+03  0.62000000E+03 -0.10500000E+03  0.74999758E+03  0.50024342E+00  0.00000000E+00  0.50000000E+00         1         1         1
       925  0.24500268E+03  0.61000000E+03 -0.10500000E+03  0.84999697E+03  0.50026823E+00  0.00000000E+00  0.50000000E+00         1         1         1
       975  0.24500292E+03  0.60000000E+03 -0.10500000E+03  0.94999641E+03  0.50029205E+00  0.00000000E+00  0.50000000E+00         1         1         1
      1025  0.24500315E+03  0.59000000E+03 -0.10500000E+03  0.10499960E+04  0.50031546E+00  0.00000000E+00  0.50000000E+00         1         1         1
      1075  0.24500339E+03  0.58000000E+03 -0.10500000E+03  0.11499957E+04  0.50033897E+00  0.00000000E+00  0.50000000E+00         1         1         1
      1125  0.24500363E+03  0.57000000E+03 -0.10500000E+03  0.12499956E+04  0.50036299E+00  0.00000000E+00  0.50000000E+00         1         1         1
      1175  0.24500388E+03  0.56000000E+03 -0.10500000E+03  0.13499958E+04  0.50038775E+00  0.00000000E+00  0.50000000E+00         1         1         1
      1225  0.24500413E+03  0.55000000E+03 -0.10500000E+03  0.14499961E+04  0.50041325E+00  0.00000000E+00  0.50000000E+00         1         1         1
      1275  0.24500439E+03  0.54000000E+03 -0.10500000E+03  0.15499966E+04  0.50043932E+00  0.00000000E+00  0.50000000E+00         1         1         1
      1325  0.24500466E+03  0.53000000E+03 -0.10500000E+03  0.16499971E+04  0.50046559E+00  0.00000000E+00  0.50000000E+00         1         1         1
      1375  0.24500492E+03  0.52000000E+03 -0.10500000E+03  0.17499977E+04  0.50049158E+00  0.00000000E+00  0.50000000E+00         1         1         1
      1425  0.24500517E+03  0.51000000E+03 -0.10500000E+03  0.18499984E+04  0.50051678E+00  0.00000000E+00  0.50000000E+00         1         1         1
      1475  0.24500541E+03  0.50000000E+03 -0.10500000E+03  0.19499989E+04  0.50054069E+00  0.00000000E+00  0.50000000E+00         1         1         1
      1525  0.24500563E+03  0.49000000E+03 -0.10500000E+03  0.20499994E+04  0.50056289E+00  0.00000000E+00  0.50000000E+00         1         1         1
      1575  0.24500583E+03  0.48000000E+03 -0.10500000E+03  0.21499998E+04  0.50058315E+00  0.00000000E+00  0.50000000E+00         1         1         1
      1625  0.24500601E+03  0.47000000E+03 -0.10500000E+03  0.22500001E+04  0.50060139E+00  0.00000000E+00  0.50000000E+00         1         1         1
      1675  0.24500618E+03  0.46000000E+03 -0.10500000E+03  0.23500003E+04  0.50061773E+00  0.00000000E+00  0.50000000E+00         1         1         1
      1725  0.24500632E+03  0.45000000E+03 -0.10500000E+03  0.24500005E+04  0.50063245E+00  0.00000000E+00  0.50000000E+00         1         1         1
      1775  0.24500646E+03  0.44000000E+03 -0.10500000E+03  0.25500007E+04  0.50064596E+00  0.00000000E+00  0.50000000E+00         1         1         1
      1825  0.24500659E+03  0.43000000E+03 -0.10500000E+03  0.26500010E+04  0.50065872E+00  0.00000000E+00  0.50000000E+00         1         1         1
      1875  0.24500671E+03  0.42000000E+03 -0.10500000E+03  0.27500014E+04  0.50067119E+00  0.00000000E+00  0.50000000E+00         1         1         1
      1925  0.24500684E+03  0.41000000E+03 -0.10500000E+03  0.28500019E+04  0.50068376E+00  0.00000000E+00  0.50000000E+00         1         1         1
      1975  0.24500697E+03  0.40000000E+03 -0.10500000E+03  0.29500025E+04  0.50069667E+00  0.00000000E+00  0.50000000E+00         1         1         1
      2025  0.24500710E+03  0.39000000E+03 -0.10500000E+03  0.30500033E+04  0.50071005E+00  0.00000000E+00  0.50000000E+00         1         1         1
      2075  0.24500724E+03  0.38000000E+03 -0.10500000E+03  0.31500041E+04  0.50072382E+00  0.00000000E+00  0.50000000E+00         1         1         1
      2125  0.24500738E+03  0.37000000E+03 -0.10500000E+03  0.32500050E+04  0.50073780E+00  0.00000000E+00  0.50000000E+00         1         1         1
      2175  0.24500752E+03  0.36000000E+03 -0.10500000E+03  0.33500059E+04  0.50075165E+00  0.00000000E+00  0.50000000E+00         1         1         1
      2225  0.24500765E+03  0.35000000E+03 -0.10500000E+03  0.34500068E+04  0.50076501E+00  0.00000000E+00  0.50000000E+00         1         1         1
      2275  0.24500778E+03  0.34000000E+03 -0.10500000E+03  0.35500076E+04  0.50077750E+00  0.00000000E+00  0.50000000E+00         1         1         1
      2325  0.24500789E+03  0.33000000E+03 -0.10500000E+03  0.36500083E+04  0.50078882E+00  0.00000000E+00  0.50000000E+00         1         1         1
      2375  0.24500799E+03  0.32000000E+03 -0.10500000E+03  0.37500089E+04  0.50079873E+00  0.00000000E+00  0.50000000E+00         1         1         1
      2425  0.24500807E+03  0.31000000E+03 -0.10500000E+03  0.38500094E+04  0.50080718E+00  0.00000000E+00  0.50000000E+00         1         1         1
      2475  0.24500814E+03  0.30000000E+03 -0.10500000E+03  0.39500098E+04  0.50081422E+00  0.00000000E+00  0.50000000E+00         1         1         1
      2525  0.24500820E+03  0.29000000E+03 -0.10500000E+03  0.40500101E+04  0.50082005E+00  0.00000000E+00  0.50000000E+00         1         1         1
      2575  0.24500825E+03  0.28000000E+03 -0.10500000E+03  0.41500103E+04  0.50082496E+00  0.00000000E+00  0.50000000E+00         1         1         1
      2625  0.24500829E+03  0.27000000E+03 -0.10500000E+03  0.42500106E+04  0.50082929E+00  0.00000000E+00  0.50000000E+00         1         1         1
      2675  0.24500833E+03  0.26000000E+03 -0.10500000E+03  0.43500108E+04  0.50083339E+00  0.00000000E+00  0.50000000E+00         1         1         1
      2725  0.24500838E+03  0.25000000E+03 -0.10500000E+03  0.44500111E+04  0.50083755E+00  0.00000000E+00  0.50000000E+00         1         1         1
      2775  0.24500842E+03  0.24000000E+03 -0.10500000E+03  0.45500114E+04  0.50084199E+00  0.00000000E+00  0.50000000E+00         1         1         1
      2825  0.24500847E+03  0.23000000E+03 -0.10500000E+03  0.46500118E+04  0.50084682E+00  0.00000000E+00  0.50000000E+00         1         1         1
      2875  0.24500852E+03  0.22000000E+03 -0.10500000E+03  0.47500122E+04  0.50085203E+00  0.00000000E+00  0.50000000E+00         1         1         1
      2925  0.24500858E+03  0.21000000E+03 -0.10500000E+03  0.48500125E+04  0.50085750E+00  0.00000000E+00  0.50000000E+00         1         1         1
      2975  0.24500863E+03  0.20000000E+03 -0.10500000E+03  0.49500129E+04  0.50086305E+00  0.00000000E+00  0.50000000E+00         1         1         1
      3025  0.24500868E+03  0.19000000E+03 -0.10500000E+03  0.50500132E+04  0.50086844E+00  0.00000000E+00  0.50000000E+00         1         1         1
      3075  0.24500873E+03  0.18000000E+03 -0.10500000E+03  0.51500134E+04  0.50087344E+00  0.00000000E+00  0.50000000E+00         1         1         1
      3125  0.24500878E+03  0.17000000E+03 -0.10500000E+03  0.52500135E+04  0.50087786E+00  0.00000000E+00  0.50000000E+00         1         1         1
      3175  0.24500882E+03  0.16000000E+03 -0.10500000E+03  0.53500135E+04  0.50088158E+00  0.00000000E+00  0.50000000E+00         1         1         1
      3225  0.24500885E+03  0.15000000E+03 -0.10500000E+03  0.54500134E+04  0.50088454E+00  0.00000000E+00  0.50000000E+00         1         1         1
      3275  0.24500887E+03  0.14000000E+03 -0.10500000E+03  0.55500132E+04  0.50088680E+00  0.00000000E+00  0.50000000E+00         1         1         1
      3325  0.24500888E+03  0.13000000E+03 -0.10500000E+03  0.56500130E+04  0.50088845E+00  0.00000000E+00  0.50000000E+00         1         1         1
      3375  0.24500890E+03  0.12000000E+03 -0.10500000E+03  0.57500127E+04  0.50088966E+00  0.00000000E+00  0.50000000E+00         1         1         1
      3425  0.24500891E+03  0.11000000E+03 -0.10500000E+03  0.58500123E+04  0.50089060E+00  0.00000000E+00  0.50000000E+00         1         1         1
      3475  0.24500891E+03  0.10000000E+03 -0.10500000E+03  0.59500120E+04  0.50089144E+00  0.00000000E+00  0.50000000E+00         1         1         1
      3525  0.24500892E+03  0.90000000E+02 -0.10500000E+03  0.60500117E+04  0.50089229E+00  0.00000000E+00  0.50000000E+00         1         1         1
      3575  0.24500893E+03  0.80000000E+02 -0.10500000E+03  0.61500114E+04  0.50089322E+00  0.00000000E+00  0.50000000E+00         1         1         1
      3625  0.24500894E+03  0.70000000E+02 -0.10500000E+03  0.62500110E+04  0.50089425E+00  0.00000000E+00  0.50000000E+00         1         1         1
      3675  0.24500895E+03  0.60000000E+02 -0.10500000E+03  0.63500107E+04  0.50089533E+00  0.00000000E+00  0.50000000E+00         1         1         1
      3725  0.24500896E+03  0.50000000E+02 -0.10500000E+03  0.64500103E+04  0.50089639E+00  0.00000000E+00  0.50000000E+00         1         1         1
      3775  0.24500897E+03  0.40000000E+02 -0.10500000E+03  0.65500100E+04  0.50089732E+00  0.00000000E+00  0.50000000E+00         1         1         1
      3825  0.24500898E+03  0.30000000E+02 -0.10500000E+03  0.66500096E+04  0.50089806E+00  0.00000000E+00  0.50000000E+00         1         1         1
      3875  0.24500899E+03  0.20000000E+02 -0.10500000E+03  0.67500091E+04  0.50089853E+00  0.00000000E+00  0.50000000E+00         1         1         1
      3925  0.24500899E+03  0.10000000E+02 -0.10500000E+03  0.68500084E+04  0.50089873E+00  0.00000000E+00  0.50000000E+00         1         1         1
      3975  0.24500899E+03  0.10000000E+02 -0.10500000E+03  0.68500084E+04  0.50089873E+00  0.10000000E+01  0.50000000E+00         1         1         1
