# File generated by Flopy version 3.3.5 on 03/04/2022 at 11:18:53.
BEGIN options
  LENGTH_UNITS  meters
#  NOGRB                       # disable writing of binary file
  XORIGIN 0.0
  YORIGIN 0.0
  ANGROT  0.0
END options

BEGIN dimensions
  NLAY  1
  NROW  80
  NCOL  50
END dimensions

BEGIN GRIDDATA
  delr
    CONSTANT       10.0
  delc
    CONSTANT       10.0
  top
    CONSTANT     -100.0
  botm layered
    CONSTANT     -110.0
END GRIDDATA

