BEGIN OPTIONS
#  TIME_UNITS        DAYS
#  START_DATE_TIME   1/1/2000
END OPTIONS


BEGIN DIMENSIONS
  NPER 1
END DIMENSIONS


BEGIN PERIODDATA
# perlen     nstp      tsmult
  1.0         1         1
END PERIODDATA