MODPATH_PATHLINE_FILE         7         2
    1   0.0000000000E+00  0.0000000000E+00  0.0000000000E+00  0.0000000000E+00
END HEADER
         1         1         1        82
       525  0.24500000E+03  0.69500000E+03 -0.10500000E+03  0.00000000E+00  0.50000000E+00  0.50000000E+00  0.50000000E+00         1         1         1
       525  0.24500000E+03  0.69500000E+03 -0.10500000E+03  0.17801532-305  0.50000000E+00  0.50000000E+00  0.50000000E+00         1         1         1
       525  0.24611092E+03  0.69000000E+03 -0.10500000E+03  0.33700520E+02  0.61109244E+00  0.00000000E+00  0.50000000E+00         1         1         1
       575  0.24754289E+03  0.68000000E+03 -0.10500000E+03  0.91527858E+02  0.75428933E+00  0.00000000E+00  0.50000000E+00         1         1         1
       625  0.24778055E+03  0.67000000E+03 -0.10500000E+03  0.13722940E+03  0.77805539E+00  0.00000000E+00  0.50000000E+00         1         1         1
       675  0.24745373E+03  0.66000000E+03 -0.10500000E+03  0.17479753E+03  0.74537331E+00  0.00000000E+00  0.50000000E+00         1         1         1
       725  0.24737628E+03  0.65000000E+03 -0.10500000E+03  0.20895588E+03  0.73762820E+00  0.00000000E+00  0.50000000E+00         1         1         1
       775  0.24803822E+03  0.64000000E+03 -0.10500000E+03  0.24490081E+03  0.80382231E+00  0.00000000E+00  0.50000000E+00         1         1         1
       825  0.24874643E+03  0.63000000E+03 -0.10500000E+03  0.28362213E+03  0.87464256E+00  0.00000000E+00  0.50000000E+00         1         1         1
       875  0.25000000E+03  0.62142304E+03 -0.10500000E+03  0.31808292E+03  0.10000000E+01  0.14230370E+00  0.50000000E+00         1         1         1
       876  0.25026152E+03  0.62000000E+03 -0.10500000E+03  0.32508789E+03  0.26152269E-01  0.00000000E+00  0.50000000E+00         1         1         1
       926  0.25350329E+03  0.61000000E+03 -0.10500000E+03  0.37652626E+03  0.35032864E+00  0.00000000E+00  0.50000000E+00         1         1         1
       976  0.25654257E+03  0.60000000E+03 -0.10500000E+03  0.43489060E+03  0.65425740E+00  0.00000000E+00  0.50000000E+00         1         1         1
      1026  0.25938947E+03  0.59000000E+03 -0.10500000E+03  0.49882594E+03  0.93894711E+00  0.00000000E+00  0.50000000E+00         1         1         1
      1076  0.26000000E+03  0.58806149E+03 -0.10500000E+03  0.51149994E+03  0.10000000E+01  0.80614906E+00  0.50000000E+00         1         1         1
      1077  0.26210562E+03  0.58000000E+03 -0.10500000E+03  0.55582581E+03  0.21056168E+00  0.00000000E+00  0.50000000E+00         1         1         1
      1127  0.26365769E+03  0.57000000E+03 -0.10500000E+03  0.60747769E+03  0.36576877E+00  0.00000000E+00  0.50000000E+00         1         1         1
      1177  0.26400836E+03  0.56000000E+03 -0.10500000E+03  0.65849735E+03  0.40083646E+00  0.00000000E+00  0.50000000E+00         1         1         1
      1227  0.26320899E+03  0.55000000E+03 -0.10500000E+03  0.71030088E+03  0.32089859E+00  0.00000000E+00  0.50000000E+00         1         1         1
      1277  0.26213446E+03  0.54000000E+03 -0.10500000E+03  0.75847340E+03  0.21344610E+00  0.00000000E+00  0.50000000E+00         1         1         1
      1327  0.26115183E+03  0.53000000E+03 -0.10500000E+03  0.80029922E+03  0.11518333E+00  0.00000000E+00  0.50000000E+00         1         1         1
      1377  0.26047241E+03  0.52000000E+03 -0.10500000E+03  0.83731446E+03  0.47240745E-01  0.00000000E+00  0.50000000E+00         1         1         1
      1427  0.26053869E+03  0.51000000E+03 -0.10500000E+03  0.87246634E+03  0.53868561E-01  0.00000000E+00  0.50000000E+00         1         1         1
      1477  0.26016575E+03  0.50000000E+03 -0.10500000E+03  0.90917280E+03  0.16574938E-01  0.00000000E+00  0.50000000E+00         1         1         1
      1527  0.26000000E+03  0.49911983E+03 -0.10500000E+03  0.91259013E+03  0.00000000E+00  0.91198285E+00  0.50000000E+00         1         1         1
      1526  0.25819973E+03  0.49000000E+03 -0.10500000E+03  0.95218733E+03  0.81997282E+00  0.00000000E+00  0.50000000E+00         1         1         1
      1576  0.25681554E+03  0.48000000E+03 -0.10500000E+03  0.99089967E+03  0.68155355E+00  0.00000000E+00  0.50000000E+00         1         1         1
      1626  0.25554713E+03  0.47000000E+03 -0.10500000E+03  0.10257797E+04  0.55471324E+00  0.00000000E+00  0.50000000E+00         1         1         1
      1676  0.25435463E+03  0.46000000E+03 -0.10500000E+03  0.10572101E+04  0.43546322E+00  0.00000000E+00  0.50000000E+00         1         1         1
      1726  0.25297124E+03  0.45000000E+03 -0.10500000E+03  0.10874733E+04  0.29712382E+00  0.00000000E+00  0.50000000E+00         1         1         1
      1776  0.25174892E+03  0.44000000E+03 -0.10500000E+03  0.11178838E+04  0.17489243E+00  0.00000000E+00  0.50000000E+00         1         1         1
      1826  0.25004334E+03  0.43000000E+03 -0.10500000E+03  0.11485306E+04  0.43339001E-02  0.00000000E+00  0.50000000E+00         1         1         1
      1876  0.25000000E+03  0.42979624E+03 -0.10500000E+03  0.11491609E+04  0.00000000E+00  0.97962448E+00  0.50000000E+00         1         1         1
      1875  0.24800590E+03  0.42000000E+03 -0.10500000E+03  0.11786388E+04  0.80058965E+00  0.00000000E+00  0.50000000E+00         1         1         1
      1925  0.24582762E+03  0.41000000E+03 -0.10500000E+03  0.12098565E+04  0.58276194E+00  0.00000000E+00  0.50000000E+00         1         1         1
      1975  0.24380974E+03  0.40000000E+03 -0.10500000E+03  0.12443704E+04  0.38097410E+00  0.00000000E+00  0.50000000E+00         1         1         1
      2025  0.24178607E+03  0.39000000E+03 -0.10500000E+03  0.12815233E+04  0.17860665E+00  0.00000000E+00  0.50000000E+00         1         1         1
      2075  0.24067176E+03  0.38000000E+03 -0.10500000E+03  0.13188287E+04  0.67176427E-01  0.00000000E+00  0.50000000E+00         1         1         1
      2125  0.24000000E+03  0.37538812E+03 -0.10500000E+03  0.13353650E+04  0.00000000E+00  0.53881187E+00  0.50000000E+00         1         1         1
      2124  0.23909203E+03  0.37000000E+03 -0.10500000E+03  0.13578521E+04  0.90920286E+00  0.00000000E+00  0.50000000E+00         1         1         1
      2174  0.23601766E+03  0.36000000E+03 -0.10500000E+03  0.13979821E+04  0.60176551E+00  0.00000000E+00  0.50000000E+00         1         1         1
      2224  0.23286786E+03  0.35000000E+03 -0.10500000E+03  0.14332216E+04  0.28678555E+00  0.00000000E+00  0.50000000E+00         1         1         1
      2274  0.23045251E+03  0.34000000E+03 -0.10500000E+03  0.14645014E+04  0.45250690E-01  0.00000000E+00  0.50000000E+00         1         1         1
      2324  0.23000000E+03  0.33723127E+03 -0.10500000E+03  0.14728396E+04  0.00000000E+00  0.72312719E+00  0.50000000E+00         1         1         1
      2323  0.22914268E+03  0.33000000E+03 -0.10500000E+03  0.14896077E+04  0.91426778E+00  0.00000000E+00  0.50000000E+00         1         1         1
      2373  0.22849073E+03  0.32000000E+03 -0.10500000E+03  0.15108194E+04  0.84907316E+00  0.00000000E+00  0.50000000E+00         1         1         1
      2423  0.22855302E+03  0.31000000E+03 -0.10500000E+03  0.15321909E+04  0.85530191E+00  0.00000000E+00  0.50000000E+00         1         1         1
      2473  0.22969712E+03  0.30000000E+03 -0.10500000E+03  0.15559961E+04  0.96971201E+00  0.00000000E+00  0.50000000E+00         1         1         1
      2523  0.23000000E+03  0.29737009E+03 -0.10500000E+03  0.15627714E+04  0.10000000E+01  0.73700904E+00  0.50000000E+00         1         1         1
      2524  0.23113372E+03  0.29000000E+03 -0.10500000E+03  0.15878411E+04  0.11337214E+00  0.00000000E+00  0.50000000E+00         1         1         1
      2574  0.23306079E+03  0.28000000E+03 -0.10500000E+03  0.16243322E+04  0.30607871E+00  0.00000000E+00  0.50000000E+00         1         1         1
      2624  0.23463113E+03  0.27000000E+03 -0.10500000E+03  0.16638266E+04  0.46311263E+00  0.00000000E+00  0.50000000E+00         1         1         1
      2674  0.23512478E+03  0.26000000E+03 -0.10500000E+03  0.17057306E+04  0.51247781E+00  0.00000000E+00  0.50000000E+00         1         1         1
      2724  0.23511421E+03  0.25000000E+03 -0.10500000E+03  0.17515008E+04  0.51142102E+00  0.00000000E+00  0.50000000E+00         1         1         1
      2774  0.23566110E+03  0.24000000E+03 -0.10500000E+03  0.18037344E+04  0.56610981E+00  0.00000000E+00  0.50000000E+00         1         1         1
      2824  0.23629022E+03  0.23000000E+03 -0.10500000E+03  0.18642542E+04  0.62902210E+00  0.00000000E+00  0.50000000E+00         1         1         1
      2874  0.23633823E+03  0.22000000E+03 -0.10500000E+03  0.19265097E+04  0.63382306E+00  0.00000000E+00  0.50000000E+00         1         1         1
      2924  0.23639949E+03  0.21000000E+03 -0.10500000E+03  0.19837761E+04  0.63994885E+00  0.00000000E+00  0.50000000E+00         1         1         1
      2974  0.23569282E+03  0.20000000E+03 -0.10500000E+03  0.20375285E+04  0.56928244E+00  0.00000000E+00  0.50000000E+00         1         1         1
      3024  0.23335600E+03  0.19000000E+03 -0.10500000E+03  0.20936044E+04  0.33559973E+00  0.00000000E+00  0.50000000E+00         1         1         1
      3074  0.23039056E+03  0.18000000E+03 -0.10500000E+03  0.21583970E+04  0.39056086E-01  0.00000000E+00  0.50000000E+00         1         1         1
      3124  0.23000000E+03  0.17808357E+03 -0.10500000E+03  0.21721088E+04  0.00000000E+00  0.80835699E+00  0.50000000E+00         1         1         1
      3123  0.22866078E+03  0.17000000E+03 -0.10500000E+03  0.22187406E+04  0.86607823E+00  0.00000000E+00  0.50000000E+00         1         1         1
      3173  0.22739154E+03  0.16000000E+03 -0.10500000E+03  0.22763570E+04  0.73915354E+00  0.00000000E+00  0.50000000E+00         1         1         1
      3223  0.22513999E+03  0.15000000E+03 -0.10500000E+03  0.23349600E+04  0.51399855E+00  0.00000000E+00  0.50000000E+00         1         1         1
      3273  0.22162385E+03  0.14000000E+03 -0.10500000E+03  0.23951820E+04  0.16238530E+00  0.00000000E+00  0.50000000E+00         1         1         1
      3323  0.22000000E+03  0.13530869E+03 -0.10500000E+03  0.24232966E+04  0.00000000E+00  0.53086909E+00  0.50000000E+00         1         1         1
      3322  0.21843835E+03  0.13000000E+03 -0.10500000E+03  0.24510728E+04  0.84383458E+00  0.00000000E+00  0.50000000E+00         1         1         1
      3372  0.21505500E+03  0.12000000E+03 -0.10500000E+03  0.25010834E+04  0.50549979E+00  0.00000000E+00  0.50000000E+00         1         1         1
      3422  0.21121150E+03  0.11000000E+03 -0.10500000E+03  0.25530147E+04  0.12114968E+00  0.00000000E+00  0.50000000E+00         1         1         1
      3472  0.21000000E+03  0.10499683E+03 -0.10500000E+03  0.25816364E+04  0.00000000E+00  0.49968330E+00  0.50000000E+00         1         1         1
      3471  0.20866652E+03  0.10000000E+03 -0.10500000E+03  0.26120023E+04  0.86665214E+00  0.00000000E+00  0.50000000E+00         1         1         1
      3521  0.20712343E+03  0.90000000E+02 -0.10500000E+03  0.26717322E+04  0.71234339E+00  0.00000000E+00  0.50000000E+00         1         1         1
      3571  0.20627516E+03  0.80000000E+02 -0.10500000E+03  0.27302203E+04  0.62751629E+00  0.00000000E+00  0.50000000E+00         1         1         1
      3621  0.20568242E+03  0.70000000E+02 -0.10500000E+03  0.27884730E+04  0.56824173E+00  0.00000000E+00  0.50000000E+00         1         1         1
      3671  0.20589284E+03  0.60000000E+02 -0.10500000E+03  0.28492588E+04  0.58928391E+00  0.00000000E+00  0.50000000E+00         1         1         1
      3721  0.20699046E+03  0.50000000E+02 -0.10500000E+03  0.29190139E+04  0.69904577E+00  0.00000000E+00  0.50000000E+00         1         1         1
      3771  0.20825192E+03  0.40000000E+02 -0.10500000E+03  0.29986796E+04  0.82519249E+00  0.00000000E+00  0.50000000E+00         1         1         1
      3821  0.20830078E+03  0.30000000E+02 -0.10500000E+03  0.30826728E+04  0.83007804E+00  0.00000000E+00  0.50000000E+00         1         1         1
      3871  0.20760285E+03  0.20000000E+02 -0.10500000E+03  0.31693831E+04  0.76028479E+00  0.00000000E+00  0.50000000E+00         1         1         1
      3921  0.20677531E+03  0.10000000E+02 -0.10500000E+03  0.32561669E+04  0.67753088E+00  0.00000000E+00  0.50000000E+00         1         1         1
      3971  0.20677531E+03  0.10000000E+02 -0.10500000E+03  0.32561669E+04  0.67753088E+00  0.10000000E+01  0.50000000E+00         1         1         1
