# File generated by Flopy version 3.3.3 on 04/14/2021 at 16:24:13.
BEGIN options
  PRINT_OPTION  summary
  COMPLEXITY  simple
END options

