# File generated by Flopy version 3.3.3 on 04/14/2021 at 16:24:14.
BEGIN options
  DIGITS  9
END options

BEGIN continuous  FILEOUT  .\obs\chd_flow.csv
  river  CHD  river-bc
END continuous  FILEOUT  .\obs\chd_flow.csv

