# File generated by Flopy version 3.3.3 on 11/04/2020 at 11:51:14.
BEGIN options
  BOUNDNAMES
  OBS6  FILEIN  model.drn.obs
END options

BEGIN dimensions
  MAXBOUND  619
END dimensions

BEGIN period  1
  1 2158     108.96205902    1000.00000000  stream-1
  1 2159     109.83476257    1000.00000000  stream-1
  1 2163     108.67912292    1000.00000000  stream-1
  1 2164     108.67912292    1000.00000000  stream-1
  1 2165     109.83476257    1000.00000000  stream-1
  1 2166     109.83476257    1000.00000000  stream-1
  1 2167     109.83476257    1000.00000000  stream-1
  1 2169     112.91811371    1000.00000000  stream-1
  1 2178     109.36961365    1000.00000000  stream-1
  1 2179     109.36961365    1000.00000000  stream-1
  1 2183     111.48123932    1000.00000000  stream-1
  1 2184     111.48123932    1000.00000000  stream-1
  1 2185     111.48123932    1000.00000000  stream-1
  1 2186     111.48123932    1000.00000000  stream-1
  1 2187     111.47959137    1000.00000000  stream-1
  1 2189     111.48123932    1000.00000000  stream-1
  1 2193     108.67912292    1000.00000000  stream-1
  1 2194     109.36961365    1000.00000000  stream-1
  1 2195     108.67912292    1000.00000000  stream-1
  1 2197     109.36961365    1000.00000000  stream-1
  1 2208     107.40737152    1000.00000000  stream-1
  1 2209     107.40737152    1000.00000000  stream-1
  1 2210     107.40737152    1000.00000000  stream-1
  1 2211     107.40737152    1000.00000000  stream-1
  1 2212     109.72097015    1000.00000000  stream-1
  1 2846     108.96205902    1000.00000000  stream-1
  1 2850     110.57475281    1000.00000000  stream-1
  1 2851     110.57475281    1000.00000000  stream-1
  1 2852     111.82714844    1000.00000000  stream-1
  1 2853     110.57475281    1000.00000000  stream-1
  1 2859     113.20634460    1000.00000000  stream-1
  1 2861     113.20634460    1000.00000000  stream-1
  1 2862     113.20634460    1000.00000000  stream-1
  1 2863     113.20634460    1000.00000000  stream-1
  1 2865     110.57475281    1000.00000000  stream-1
  1 2866     110.57475281    1000.00000000  stream-1
  1 2867     112.57035828    1000.00000000  stream-1
  1 2872     108.96205902    1000.00000000  stream-1
  1 2873     108.96205902    1000.00000000  stream-1
  1 2874     108.96205902    1000.00000000  stream-1
  1 2876     108.96205902    1000.00000000  stream-1
  1 3038     116.03948212    1000.00000000  stream-1
  1 3039     114.30513763    1000.00000000  stream-1
  1 3040     114.30513763    1000.00000000  stream-1
  1 3045     117.24433136    1000.00000000  stream-1
  1 3049     117.17989349    1000.00000000  stream-1
  1 3050     117.24433136    1000.00000000  stream-1
  1 3051     117.24433136    1000.00000000  stream-1
  1 3052     116.40245819    1000.00000000  stream-1
  1 3054     117.24433136    1000.00000000  stream-1
  1 3055     117.24433136    1000.00000000  stream-1
  1 3056     117.24433136    1000.00000000  stream-1
  1 3058     114.30513763    1000.00000000  stream-1
  1 3065     113.34831238    1000.00000000  stream-1
  1 3066     116.03948212    1000.00000000  stream-1
  1 3067     113.34831238    1000.00000000  stream-1
  1 3068     113.34831238    1000.00000000  stream-1
  1 3072     116.03948212    1000.00000000  stream-1
  1 3161     117.17989349    1000.00000000  stream-1
  1 3165     117.33032990    1000.00000000  stream-1
  1 3166     117.33032990    1000.00000000  stream-1
  1 3167     120.11075592    1000.00000000  stream-1
  1 3168     117.33032990    1000.00000000  stream-1
  1 3174     118.04746246    1000.00000000  stream-1
  1 3178     118.04746246    1000.00000000  stream-1
  1 3179     118.04746246    1000.00000000  stream-1
  1 3180     118.04746246    1000.00000000  stream-1
  1 3181     118.04746246    1000.00000000  stream-1
  1 3183     117.33032990    1000.00000000  stream-1
  1 3184     117.33032990    1000.00000000  stream-1
  1 3185     123.33821869    1000.00000000  stream-1
  1 3190     117.17989349    1000.00000000  stream-1
  1 3191     117.17989349    1000.00000000  stream-1
  1 3192     117.17989349    1000.00000000  stream-1
  1 3269     121.68288422    1000.00000000  stream-1
  1 3270     121.68288422    1000.00000000  stream-1
  1 3271     121.68288422    1000.00000000  stream-1
  1 3278     121.23045349    1000.00000000  stream-1
  1 3280     120.70022583    1000.00000000  stream-1
  1 3281     125.73597717    1000.00000000  stream-1
  1 3282     120.70022583    1000.00000000  stream-1
  1 3283     120.70022583    1000.00000000  stream-1
  1 3287     125.73597717    1000.00000000  stream-1
  1 3289     121.23045349    1000.00000000  stream-1
  1 3292     121.68288422    1000.00000000  stream-1
  1 3293     121.29541016    1000.00000000  stream-1
  1 3294     121.68288422    1000.00000000  stream-1
  1 3297     121.68288422    1000.00000000  stream-1
  1 3380     127.64973450    1000.00000000  stream-1
  1 3391     121.09487152    1000.00000000  stream-1
  1 3396     124.99760437    1000.00000000  stream-1
  1 3398     124.99760437    1000.00000000  stream-1
  1 3399     127.64973450    1000.00000000  stream-1
  1 3400     124.99760437    1000.00000000  stream-1
  1 3401     124.99760437    1000.00000000  stream-1
  1 3402     124.99760437    1000.00000000  stream-1
  1 3406     125.48971558    1000.00000000  stream-1
  1 3407     133.52355957    1000.00000000  stream-1
  1 3408     133.52355957    1000.00000000  stream-1
  1 3409     125.48971558    1000.00000000  stream-1
  1 3410     121.09487152    1000.00000000  stream-1
  1 3418     128.46969604    1000.00000000  stream-1
  1 3419     121.23045349    1000.00000000  stream-1
  1 3420     121.23045349    1000.00000000  stream-1
  1 3421     121.23045349    1000.00000000  stream-1
  1 3424     121.09487152    1000.00000000  stream-1
  1 3425     121.09487152    1000.00000000  stream-1
  1 3426     121.09487152    1000.00000000  stream-1
  1 3513     134.31880188    1000.00000000  stream-1
  1 3518     134.31880188    1000.00000000  stream-1
  1 3519     134.07414246    1000.00000000  stream-1
  1 3520     137.48175049    1000.00000000  stream-1
  1 3521     137.48175049    1000.00000000  stream-1
  1 3522     134.07414246    1000.00000000  stream-1
  1 3533     134.36100769    1000.00000000  stream-1
  1 3534     129.90887451    1000.00000000  stream-1
  1 3538     132.54524231    1000.00000000  stream-1
  1 3541     132.54524231    1000.00000000  stream-1
  1 3542     132.54524231    1000.00000000  stream-1
  1 3543     132.54524231    1000.00000000  stream-1
  1 3544     132.54524231    1000.00000000  stream-1
  1 3548     130.93447876    1000.00000000  stream-1
  1 3549     130.93447876    1000.00000000  stream-1
  1 3550     130.93447876    1000.00000000  stream-1
  1 3552     130.93447876    1000.00000000  stream-1
  1 3561     128.02853394    1000.00000000  stream-1
  1 3562     128.02853394    1000.00000000  stream-1
  1 3563     129.90887451    1000.00000000  stream-1
  1 3564     129.90887451    1000.00000000  stream-1
  1 3565     129.90887451    1000.00000000  stream-1
  1 3567     128.02853394    1000.00000000  stream-1
  1 3571     128.02853394    1000.00000000  stream-1
  1 3572     130.60668945    1000.00000000  stream-1
  1 3573     128.02853394    1000.00000000  stream-1
  1 3575     130.60668945    1000.00000000  stream-1
  1 3576     130.60668945    1000.00000000  stream-1
  1 3659     145.54905701    1000.00000000  stream-1
  1 3670     140.21514893    1000.00000000  stream-1
  1 3674     145.18666077    1000.00000000  stream-1
  1 3675     145.18666077    1000.00000000  stream-1
  1 3676     145.54905701    1000.00000000  stream-1
  1 3677     145.54905701    1000.00000000  stream-1
  1 3678     145.54905701    1000.00000000  stream-1
  1 3680     145.18666077    1000.00000000  stream-1
  1 3684     144.33569336    1000.00000000  stream-1
  1 3685     140.21514893    1000.00000000  stream-1
  1 3686     145.18666077    1000.00000000  stream-1
  1 3688     140.21514893    1000.00000000  stream-1
  1 3689     140.21514893    1000.00000000  stream-1
  1 3698     138.56344604    1000.00000000  stream-1
  1 3699     138.56344604    1000.00000000  stream-1
  1 3700     138.56344604    1000.00000000  stream-1
  1 3701     139.00051880    1000.00000000  stream-1
  1 3702     138.56344604    1000.00000000  stream-1
  1 3707     140.92062378    1000.00000000  stream-1
  1 3710     140.92062378    1000.00000000  stream-1
  1 3711     136.91717529    1000.00000000  stream-1
  1 3712     139.00051880    1000.00000000  stream-1
  1 3713     139.00051880    1000.00000000  stream-1
  1 3725     136.91717529    1000.00000000  stream-1
  1 3726     136.91717529    1000.00000000  stream-1
  1 3727     136.91717529    1000.00000000  stream-1
  1 3729     134.31880188    1000.00000000  stream-1
  1 3730     134.31880188    1000.00000000  stream-1
  1 3817     146.53337097    1000.00000000  stream-1
  1 3818     148.62356567    1000.00000000  stream-1
  1 3819     148.62356567    1000.00000000  stream-1
  1 3820     146.53337097    1000.00000000  stream-1
  1 3826     142.80799866    1000.00000000  stream-1
  1 3827     149.27146912    1000.00000000  stream-1
  1 3828     142.80799866    1000.00000000  stream-1
  1 3832     142.80799866    1000.00000000  stream-1
  1 3833     152.05023193    1000.00000000  stream-1
  1 3834     145.54905701    1000.00000000  stream-1
  1 3835     142.80799866    1000.00000000  stream-1
  1 3837     142.80799866    1000.00000000  stream-1
  1 3838     142.80799866    1000.00000000  stream-1
  1 3843     144.68260193    1000.00000000  stream-1
  1 3844     144.68260193    1000.00000000  stream-1
  1 3845     144.68260193    1000.00000000  stream-1
  1 3846     144.68260193    1000.00000000  stream-1
  1 3850     144.68260193    1000.00000000  stream-1
  1 3931     148.19171143    1000.00000000  stream-1
  1 3933     147.75245667    1000.00000000  stream-1
  1 3934     147.75245667    1000.00000000  stream-1
  1 3935     147.75245667    1000.00000000  stream-1
  1 3936     149.99603271    1000.00000000  stream-1
  1 3937     149.99603271    1000.00000000  stream-1
  1 3940     148.19171143    1000.00000000  stream-1
  1 3941     146.53337097    1000.00000000  stream-1
  1 3942     148.19171143    1000.00000000  stream-1
  1 3947     147.75245667    1000.00000000  stream-1
  1 618     147.07469177    1000.00000000  stream-2
  1 625     147.07469177    1000.00000000  stream-2
  1 626     147.07469177    1000.00000000  stream-2
  1 629     149.79144287    1000.00000000  stream-2
  1 630     149.79144287    1000.00000000  stream-2
  1 632     149.79144287    1000.00000000  stream-2
  1 637     149.79144287    1000.00000000  stream-2
  1 638     150.84449768    1000.00000000  stream-2
  1 641     146.06015015    1000.00000000  stream-2
  1 644     146.06015015    1000.00000000  stream-2
  1 645     146.06015015    1000.00000000  stream-2
  1 652     143.35801697    1000.00000000  stream-2
  1 654     143.35801697    1000.00000000  stream-2
  1 655     143.35801697    1000.00000000  stream-2
  1 658     143.35801697    1000.00000000  stream-2
  1 659     145.11505127    1000.00000000  stream-2
  1 741     145.11505127    1000.00000000  stream-2
  1 746     145.11505127    1000.00000000  stream-2
  1 747     145.11505127    1000.00000000  stream-2
  1 750     145.11505127    1000.00000000  stream-2
  1 752     146.76124573    1000.00000000  stream-2
  1 753     143.47758484    1000.00000000  stream-2
  1 760     143.47758484    1000.00000000  stream-2
  1 761     143.47758484    1000.00000000  stream-2
  1 764     143.47758484    1000.00000000  stream-2
  1 767     139.96444702    1000.00000000  stream-2
  1 768     139.96444702    1000.00000000  stream-2
  1 770     139.96444702    1000.00000000  stream-2
  1 775     139.96444702    1000.00000000  stream-2
  1 776     140.34347534    1000.00000000  stream-2
  1 779     140.34347534    1000.00000000  stream-2
  1 786     142.18911743    1000.00000000  stream-2
  1 787     142.18911743    1000.00000000  stream-2
  1 797     137.27163696    1000.00000000  stream-2
  1 798     137.27163696    1000.00000000  stream-2
  1 800     137.27163696    1000.00000000  stream-2
  1 803     137.27163696    1000.00000000  stream-2
  1 806     137.27163696    1000.00000000  stream-2
  1 808     138.18005371    1000.00000000  stream-2
  1 881     138.18005371    1000.00000000  stream-2
  1 883     138.18005371    1000.00000000  stream-2
  1 886     138.18005371    1000.00000000  stream-2
  1 888     139.20050049    1000.00000000  stream-2
  1 895     139.20050049    1000.00000000  stream-2
  1 896     139.45767212    1000.00000000  stream-2
  1 898     139.45767212    1000.00000000  stream-2
  1 901     137.65432739    1000.00000000  stream-2
  1 903     137.65432739    1000.00000000  stream-2
  1 976     137.65432739    1000.00000000  stream-2
  1 978     136.94738770    1000.00000000  stream-2
  1 981     136.94738770    1000.00000000  stream-2
  1 983     136.94738770    1000.00000000  stream-2
  1 988     136.94738770    1000.00000000  stream-2
  1 995     136.96780396    1000.00000000  stream-2
  1 997     136.96780396    1000.00000000  stream-2
  1 1000     136.96780396    1000.00000000  stream-2
  1 1002     136.96780396    1000.00000000  stream-2
  1 1075     136.42166138    1000.00000000  stream-2
  1 1077     136.42166138    1000.00000000  stream-2
  1 1080     136.42166138    1000.00000000  stream-2
  1 1082     137.64030457    1000.00000000  stream-2
  1 1083     137.64030457    1000.00000000  stream-2
  1 1090     137.64030457    1000.00000000  stream-2
  1 1093     137.64030457    1000.00000000  stream-2
  1 1094     136.17422485    1000.00000000  stream-2
  1 1096     136.17422485    1000.00000000  stream-2
  1 1106     136.17422485    1000.00000000  stream-2
  1 1109     138.54788208    1000.00000000  stream-2
  1 1110     138.54788208    1000.00000000  stream-2
  1 1112     138.54788208    1000.00000000  stream-2
  1 1115     133.46504211    1000.00000000  stream-2
  1 1188     133.46504211    1000.00000000  stream-2
  1 1189     133.46504211    1000.00000000  stream-2
  1 1194     133.46504211    1000.00000000  stream-2
  1 1196     139.83367920    1000.00000000  stream-2
  1 1197     131.87651062    1000.00000000  stream-2
  1 1200     131.87651062    1000.00000000  stream-2
  1 1203     131.87651062    1000.00000000  stream-2
  1 1205     131.87651062    1000.00000000  stream-2
  1 1206     131.87651062    1000.00000000  stream-2
  1 1210     139.16111755    1000.00000000  stream-2
  1 1223     133.69990540    1000.00000000  stream-2
  1 1224     133.69990540    1000.00000000  stream-2
  1 1227     133.69990540    1000.00000000  stream-2
  1 1229     133.69990540    1000.00000000  stream-2
  1 1230     133.69990540    1000.00000000  stream-2
  1 1235     129.77789307    1000.00000000  stream-2
  1 1236     129.77789307    1000.00000000  stream-2
  1 1239     129.77789307    1000.00000000  stream-2
  1 1242     129.77789307    1000.00000000  stream-2
  1 1243     128.67008972    1000.00000000  stream-2
  1 1250     128.67008972    1000.00000000  stream-2
  1 1252     128.67008972    1000.00000000  stream-2
  1 1253     128.67008972    1000.00000000  stream-2
  1 1256     128.23799133    1000.00000000  stream-2
  1 1257     128.23799133    1000.00000000  stream-2
  1 1345     128.93766785    1000.00000000  stream-2
  1 1350     128.93766785    1000.00000000  stream-2
  1 1351     125.72494507    1000.00000000  stream-2
  1 1354     125.72494507    1000.00000000  stream-2
  1 1356     125.72494507    1000.00000000  stream-2
  1 1357     125.72494507    1000.00000000  stream-2
  1 1364     125.72494507    1000.00000000  stream-2
  1 1365     125.28414917    1000.00000000  stream-2
  1 1371     125.28414917    1000.00000000  stream-2
  1 1372     125.28414917    1000.00000000  stream-2
  1 1377     126.36801147    1000.00000000  stream-2
  1 1378     126.36801147    1000.00000000  stream-2
  1 1381     126.36801147    1000.00000000  stream-2
  1 1382     128.78045654    1000.00000000  stream-2
  1 1395     128.78045654    1000.00000000  stream-2
  1 1397     125.75973511    1000.00000000  stream-2
  1 1398     125.75973511    1000.00000000  stream-2
  1 1401     123.36885834    1000.00000000  stream-2
  1 1402     123.36885834    1000.00000000  stream-2
  1 1407     123.36885834    1000.00000000  stream-2
  1 1408     120.63582611    1000.00000000  stream-2
  1 1411     120.63582611    1000.00000000  stream-2
  1 1412     120.63582611    1000.00000000  stream-2
  1 1419     120.63582611    1000.00000000  stream-2
  1 1432     120.63582611    1000.00000000  stream-2
  1 1433     118.75993347    1000.00000000  stream-2
  1 1436     118.75993347    1000.00000000  stream-2
  1 1438     118.75993347    1000.00000000  stream-2
  1 1439     118.75993347    1000.00000000  stream-2
  1 1444     121.87928772    1000.00000000  stream-2
  1 1447     119.23464203    1000.00000000  stream-2
  1 1448     119.23464203    1000.00000000  stream-2
  1 1451     119.23464203    1000.00000000  stream-2
  1 1453     119.23464203    1000.00000000  stream-2
  1 1454     116.82064056    1000.00000000  stream-2
  1 1461     116.82064056    1000.00000000  stream-2
  1 1540     116.82064056    1000.00000000  stream-2
  1 1541     116.82064056    1000.00000000  stream-2
  1 1544     117.91168976    1000.00000000  stream-2
  1 1546     116.64067078    1000.00000000  stream-2
  1 1547     116.64067078    1000.00000000  stream-2
  1 1550     116.64067078    1000.00000000  stream-2
  1 1555     116.64067078    1000.00000000  stream-2
  1 1556     116.64067078    1000.00000000  stream-2
  1 1558     116.64067078    1000.00000000  stream-2
  1 1561     114.26797485    1000.00000000  stream-2
  1 1562     114.26797485    1000.00000000  stream-2
  1 1569     114.26797485    1000.00000000  stream-2
  1 1579     114.26797485    1000.00000000  stream-2
  1 1580     114.86326599    1000.00000000  stream-2
  1 1582     113.17464447    1000.00000000  stream-2
  1 1585     113.17464447    1000.00000000  stream-2
  1 1586     113.17464447    1000.00000000  stream-2
  1 1589     113.17464447    1000.00000000  stream-2
  1 1594     112.13420868    1000.00000000  stream-2
  1 1595     112.13420868    1000.00000000  stream-2
  1 1597     112.13420868    1000.00000000  stream-2
  1 1600     112.13420868    1000.00000000  stream-2
  1 1601     113.05961609    1000.00000000  stream-2
  1 1680     110.25578308    1000.00000000  stream-2
  1 1687     110.25578308    1000.00000000  stream-2
  1 1689     110.25578308    1000.00000000  stream-2
  1 1690     110.25578308    1000.00000000  stream-2
  1 1693     110.25578308    1000.00000000  stream-2
  1 1696     110.25578308    1000.00000000  stream-2
  1 1697     110.53360748    1000.00000000  stream-2
  1 1702     110.53360748    1000.00000000  stream-2
  1 1704     110.53932953    1000.00000000  stream-2
  1 1705     110.53932953    1000.00000000  stream-2
  1 1708     108.56002808    1000.00000000  stream-2
  1 1715     108.56002808    1000.00000000  stream-2
  1 1716     108.56002808    1000.00000000  stream-2
  1 1718     108.56002808    1000.00000000  stream-2
  1 1728     108.56002808    1000.00000000  stream-2
  1 1731     110.33876038    1000.00000000  stream-2
  1 1732     107.93961334    1000.00000000  stream-2
  1 1734     107.93961334    1000.00000000  stream-2
  1 1737     107.93961334    1000.00000000  stream-2
  1 1813     107.93961334    1000.00000000  stream-2
  1 1814     107.93961334    1000.00000000  stream-2
  1 1816     107.93961334    1000.00000000  stream-2
  1 1821     111.38409424    1000.00000000  stream-2
  1 1824     107.39776611    1000.00000000  stream-2
  1 1825     107.39776611    1000.00000000  stream-2
  1 1827     107.39776611    1000.00000000  stream-2
  1 1830     107.39776611    1000.00000000  stream-2
  1 1834     107.39776611    1000.00000000  stream-2
  1 1835     107.39776611    1000.00000000  stream-2
  1 1837     115.73738861    1000.00000000  stream-2
  1 1847     108.75061035    1000.00000000  stream-2
  1 1848     108.75061035    1000.00000000  stream-2
  1 1851     108.75061035    1000.00000000  stream-2
  1 1854     108.75061035    1000.00000000  stream-2
  1 1856     108.75061035    1000.00000000  stream-2
  1 1857     109.64459229    1000.00000000  stream-2
  1 2212     109.72097015    1000.00000000  stream-2
  1 1934     102.17883301    1000.00000000  stream-3
  1 1935     102.17883301    1000.00000000  stream-3
  1 1940     102.17883301    1000.00000000  stream-3
  1 1941     102.17883301    1000.00000000  stream-3
  1 1944     100.28268433    1000.00000000  stream-3
  1 1945     100.28268433    1000.00000000  stream-3
  1 1952     100.28268433    1000.00000000  stream-3
  1 1953     100.00666046    1000.00000000  stream-3
  1 1954     100.00666046    1000.00000000  stream-3
  1 1955     100.00666046    1000.00000000  stream-3
  1 1956     100.00666046    1000.00000000  stream-3
  1 1960      98.61919403    1000.00000000  stream-3
  1 1961      98.61919403    1000.00000000  stream-3
  1 1964      98.61919403    1000.00000000  stream-3
  1 1965      97.77793884    1000.00000000  stream-3
  1 1972      97.77793884    1000.00000000  stream-3
  1 1973      97.77793884    1000.00000000  stream-3
  1 1976      97.77793884    1000.00000000  stream-3
  1 1977      97.04412842    1000.00000000  stream-3
  1 1982      97.04412842    1000.00000000  stream-3
  1 1983      97.04412842    1000.00000000  stream-3
  1 1986      99.06726074    1000.00000000  stream-3
  1 1987      99.06726074    1000.00000000  stream-3
  1 2001      98.57520294    1000.00000000  stream-3
  1 2002      98.57520294    1000.00000000  stream-3
  1 2003      99.06726074    1000.00000000  stream-3
  1 2004      98.57520294    1000.00000000  stream-3
  1 2007      98.57520294    1000.00000000  stream-3
  1 2013      97.50888062    1000.00000000  stream-3
  1 2014      97.50888062    1000.00000000  stream-3
  1 2017      97.50888062    1000.00000000  stream-3
  1 2020      97.50888062    1000.00000000  stream-3
  1 2021      96.13399506    1000.00000000  stream-3
  1 2028      96.13399506    1000.00000000  stream-3
  1 2029      96.13399506    1000.00000000  stream-3
  1 2032      96.13399506    1000.00000000  stream-3
  1 2033      96.40013885    1000.00000000  stream-3
  1 2038      96.40013885    1000.00000000  stream-3
  1 2039      96.40013885    1000.00000000  stream-3
  1 2041      96.40013885    1000.00000000  stream-3
  1 2044      96.60769653    1000.00000000  stream-3
  1 2045      96.60769653    1000.00000000  stream-3
  1 2052      96.60769653    1000.00000000  stream-3
  1 2053      96.81466675    1000.00000000  stream-3
  1 2056      96.81466675    1000.00000000  stream-3
  1 2057      96.81466675    1000.00000000  stream-3
  1 2062      97.14120483    1000.00000000  stream-3
  1 2212     109.72097015    1000.00000000  stream-3
  1 2217     109.72097015    1000.00000000  stream-3
  1 2218     109.72097015    1000.00000000  stream-3
  1 2221     107.52356720    1000.00000000  stream-3
  1 2222     107.52356720    1000.00000000  stream-3
  1 2224     107.52356720    1000.00000000  stream-3
  1 2231     107.52356720    1000.00000000  stream-3
  1 2232     106.48316956    1000.00000000  stream-3
  1 2235     106.48316956    1000.00000000  stream-3
  1 2236     106.48316956    1000.00000000  stream-3
  1 2241     110.60140228    1000.00000000  stream-3
  1 2244     110.60140228    1000.00000000  stream-3
  1 2245     110.60140228    1000.00000000  stream-3
  1 2248     110.60140228    1000.00000000  stream-3
  1 2249     110.60140228    1000.00000000  stream-3
  1 2259     115.61308289    1000.00000000  stream-3
  1 2261     108.96366119    1000.00000000  stream-3
  1 2262     108.96366119    1000.00000000  stream-3
  1 2265     108.96366119    1000.00000000  stream-3
  1 2266     107.60200500    1000.00000000  stream-3
  1 2271     107.60200500    1000.00000000  stream-3
  1 2278     107.60200500    1000.00000000  stream-3
  1 2279     107.60200500    1000.00000000  stream-3
  1 2282     105.93345642    1000.00000000  stream-3
  1 2283     105.93345642    1000.00000000  stream-3
  1 2285     105.93345642    1000.00000000  stream-3
  1 2295     105.93345642    1000.00000000  stream-3
  1 2296     110.33675385    1000.00000000  stream-3
  1 2299     110.33675385    1000.00000000  stream-3
  1 2302     108.12225342    1000.00000000  stream-3
  1 2303     108.12225342    1000.00000000  stream-3
  1 2308     108.12225342    1000.00000000  stream-3
  1 2309     106.19831085    1000.00000000  stream-3
  1 2311     106.19831085    1000.00000000  stream-3
  1 2314     106.19831085    1000.00000000  stream-3
  1 2315     106.19831085    1000.00000000  stream-3
  1 2322     105.02375031    1000.00000000  stream-3
  1 2331     105.00270081    1000.00000000  stream-3
  1 2340     105.00270081    1000.00000000  stream-3
  1 2341     105.00270081    1000.00000000  stream-3
  1 2342     105.00270081    1000.00000000  stream-3
  1 2343     107.51825714    1000.00000000  stream-3
  1 2344     107.51825714    1000.00000000  stream-3
  1 2349     107.99447632    1000.00000000  stream-3
  1 2350     104.56226349    1000.00000000  stream-3
  1 2351     104.56226349    1000.00000000  stream-3
  1 2352     104.56226349    1000.00000000  stream-3
  1 2353     104.56226349    1000.00000000  stream-3
  1 2355     107.51825714    1000.00000000  stream-3
  1 2365     105.29193878    1000.00000000  stream-3
  1 2367     105.52298737    1000.00000000  stream-3
  1 2368     105.29193878    1000.00000000  stream-3
  1 2369     106.87307739    1000.00000000  stream-3
  1 2372     105.52298737    1000.00000000  stream-3
  1 2373     105.52298737    1000.00000000  stream-3
  1 2376     105.40597534    1000.00000000  stream-3
  1 2377     105.40597534    1000.00000000  stream-3
  1 2380     105.29193878    1000.00000000  stream-3
  1 2381     105.29193878    1000.00000000  stream-3
  1 2393     105.40597534    1000.00000000  stream-3
  1 2394     105.40597534    1000.00000000  stream-3
  1 2397     105.97393036    1000.00000000  stream-3
  1 2398     105.97393036    1000.00000000  stream-3
  1 2403     105.97393036    1000.00000000  stream-3
  1 2404     108.25860596    1000.00000000  stream-3
  1 2407     108.25860596    1000.00000000  stream-3
  1 2408     108.25860596    1000.00000000  stream-3
  1 2421     107.32528687    1000.00000000  stream-3
  1 2422     107.32528687    1000.00000000  stream-3
  1 2425     107.32528687    1000.00000000  stream-3
  1 2426     104.63610077    1000.00000000  stream-3
  1 2431     104.63610077    1000.00000000  stream-3
  1 2433     104.83784485    1000.00000000  stream-3
  1 2434     104.83784485    1000.00000000  stream-3
  1 2437     104.83784485    1000.00000000  stream-3
  1 2438     104.26709747    1000.00000000  stream-3
  1 2451     104.26709747    1000.00000000  stream-3
  1 2452     104.26709747    1000.00000000  stream-3
  1 2455     103.81369781    1000.00000000  stream-3
  1 2456     103.81369781    1000.00000000  stream-3
  1 2461     103.81369781    1000.00000000  stream-3
  1 2462     103.46565247    1000.00000000  stream-3
  1 2465     103.46565247    1000.00000000  stream-3
  1 2466     103.46565247    1000.00000000  stream-3
  1 2479     103.19440460    1000.00000000  stream-3
  1 2480     103.19440460    1000.00000000  stream-3
  1 2483     103.19440460    1000.00000000  stream-3
  1 2484     103.19440460    1000.00000000  stream-3
  1 2489     102.98845673    1000.00000000  stream-3
  1 2490     102.98845673    1000.00000000  stream-3
  1 2493     102.98845673    1000.00000000  stream-3
  1 2494     102.84016418    1000.00000000  stream-3
  1 2507     102.84016418    1000.00000000  stream-3
  1 2508     102.84016418    1000.00000000  stream-3
  1 2511     102.70132446    1000.00000000  stream-3
  1 2512     102.70132446    1000.00000000  stream-3
  1 2517     102.70132446    1000.00000000  stream-3
  1 2518     102.39786530    1000.00000000  stream-3
  1 2521     102.39786530    1000.00000000  stream-3
  1 2522     102.39786530    1000.00000000  stream-3
  1 2535     102.06622314    1000.00000000  stream-3
  1 2536     102.06622314    1000.00000000  stream-3
  1 2539     102.06622314    1000.00000000  stream-3
  1 2540     102.06622314    1000.00000000  stream-3
  1 2545     101.60440826    1000.00000000  stream-3
  1 2546     101.60440826    1000.00000000  stream-3
  1 2549     101.60440826    1000.00000000  stream-3
  1 2550     102.16973114    1000.00000000  stream-3
  1 2556     101.60440826    1000.00000000  stream-3
  1 2566     102.16973114    1000.00000000  stream-3
  1 2567     102.16973114    1000.00000000  stream-3
  1 2569     104.18020630    1000.00000000  stream-3
  1 2570     103.45022583    1000.00000000  stream-3
  1 2571     103.45022583    1000.00000000  stream-3
  1 2574     104.18020630    1000.00000000  stream-3
  1 2575     105.79330444    1000.00000000  stream-3
  1 2578     105.79330444    1000.00000000  stream-3
  1 2579     105.79330444    1000.00000000  stream-3
  1 2592     105.79330444    1000.00000000  stream-3
  1 2593      98.98390198    1000.00000000  stream-3
  1 2596      98.98390198    1000.00000000  stream-3
  1 2597      98.98390198    1000.00000000  stream-3
  1 2598     105.79330444    1000.00000000  stream-3
  1 2604     100.52474976    1000.00000000  stream-3
  1 2605     100.52474976    1000.00000000  stream-3
  1 2606     100.52474976    1000.00000000  stream-3
  1 2607     100.52474976    1000.00000000  stream-3
  1 2608     102.47200775    1000.00000000  stream-3
  1 2618     102.47200775    1000.00000000  stream-3
  1 2619     102.47200775    1000.00000000  stream-3
  1 2622     106.10082245    1000.00000000  stream-3
  1 2678      96.74256897    1000.00000000  stream-3