pcf
* control data
restart regularisation
    2205      23       7    2205      12
3  5    single  point
 10.0  -3.0  0.3  0.03  10  lamforgive uptestmin=20
 30.0  30.0  0.001
0.1
-2  0.005  4  4  0.005  4
0  0  0 parsaveitn reisaveitn
* singular value decomposition
1
  5000  5e-7
0
* parameter groups
kx1    relative   0.015   0.0  switch  2  parabolic
kx2    relative   0.015   0.0  switch  2  parabolic
kx3    relative   0.015   0.0  switch  2  parabolic
rch    relative   0.015   0.0  switch  2  parabolic
strc    relative   0.015   0.0  switch  2  parabolic
ghb1       relative   0.015   0.0  switch  2  parabolic
ghb3       relative   0.015   0.0  switch  2  parabolic
* parameter data
drncpp01    log    factor    99.98310      1.00e-04    10000    strc    1    0
drncpp02    log    factor    99.99010      1.00e-04    10000    strc    1    0
drncpp03    log    factor    100.0015      1.00e-04    10000    strc    1    0
drncpp04    log    factor    100.0115      1.00e-04    10000    strc    1    0
drncpp05    log    factor    100.0142      1.00e-04    10000    strc    1    0
drncpp06    log    factor    100.0197      1.00e-04    10000    strc    1    0
drncpp07    log    factor    100.0201      1.00e-04    10000    strc    1    0
drncpp08    log    factor    100.0190      1.00e-04    10000    strc    1    0
drncpp09    log    factor    100.0177      1.00e-04    10000    strc    1    0
drncpp10    log    factor    100.0148      1.00e-04    10000    strc    1    0
drncpp11    log    factor    100.0125      1.00e-04    10000    strc    1    0
drncpp12    log    factor    100.0181      1.00e-04    10000    strc    1    0
drncpp13    log    factor    99.98233      1.00e-04    10000    strc    1    0
drncpp14    log    factor    99.98334      1.00e-04    10000    strc    1    0
drncpp15    log    factor    100.0096      1.00e-04    10000    strc    1    0
drncpp16    log    factor    100.0144      1.00e-04    10000    strc    1    0
drncpp17    log    factor    99.98609      1.00e-04    10000    strc    1    0
drncpp18    log    factor    99.99057      1.00e-04    10000    strc    1    0
drncpp19    log    factor    99.99671      1.00e-04    10000    strc    1    0
drncpp20    log    factor    100.0047      1.00e-04    10000    strc    1    0
drncpp21    log    factor    100.0103      1.00e-04    10000    strc    1    0
drncpp22    log    factor    100.0093      1.00e-04    10000    strc    1    0
drncpp23    log    factor    100.0114      1.00e-04    10000    strc    1    0
drncpp24    log    factor    100.0196      1.00e-04    10000    strc    1    0
drncpp25    log    factor    100.0299      1.00e-04    10000    strc    1    0
drncpp26    log    factor    100.0400      1.00e-04    10000    strc    1    0
drncpp27    log    factor    100.0463      1.00e-04    10000    strc    1    0
drncpp28    log    factor    100.0464      1.00e-04    10000    strc    1    0
drncpp29    log    factor    100.0354      1.00e-04    10000    strc    1    0
drncpp30    log    factor    100.0252      1.00e-04    10000    strc    1    0
drncpp31    log    factor    100.0147      1.00e-04    10000    strc    1    0
ghbc1pp01    log    factor    99.97877      1.00e-04    10000    ghb1    1    0
ghbc1pp02    log    factor    99.97348      1.00e-04    10000    ghb1    1    0
ghbc1pp03    log    factor    99.96723      1.00e-04    10000    ghb1    1    0
ghbc1pp04    log    factor    99.95984      1.00e-04    10000    ghb1    1    0
ghbc1pp05    log    factor    99.95117      1.00e-04    10000    ghb1    1    0
ghbc1pp06    log    factor    99.94126      1.00e-04    10000    ghb1    1    0
ghbc1pp07    log    factor    99.93037      1.00e-04    10000    ghb1    1    0
ghbc1pp08    log    factor    99.91891      1.00e-04    10000    ghb1    1    0
ghbc1pp09    log    factor    99.90732      1.00e-04    10000    ghb1    1    0
ghbc1pp10    log    factor    99.89612      1.00e-04    10000    ghb1    1    0
ghbc1pp11    log    factor    99.88605      1.00e-04    10000    ghb1    1    0
ghbc1pp12    log    factor    99.87800      1.00e-04    10000    ghb1    1    0
ghbc1pp13    log    factor    99.87297      1.00e-04    10000    ghb1    1    0
ghbc1pp14    log    factor    99.87199      1.00e-04    10000    ghb1    1    0
ghbc1pp15    log    factor    99.87594      1.00e-04    10000    ghb1    1    0
ghbc1pp16    log    factor    99.88490      1.00e-04    10000    ghb1    1    0
ghbc1pp17    log    factor    99.89625      1.00e-04    10000    ghb1    1    0
ghbc1pp18    log    factor    99.90720      1.00e-04    10000    ghb1    1    0
ghbc1pp19    log    factor    99.91818      1.00e-04    10000    ghb1    1    0
ghbc1pp20    log    factor    99.92977      1.00e-04    10000    ghb1    1    0
ghbc1pp21    log    factor    99.94109      1.00e-04    10000    ghb1    1    0
ghbc1pp22    log    factor    99.95139      1.00e-04    10000    ghb1    1    0
ghbc1pp23    log    factor    99.96029      1.00e-04    10000    ghb1    1    0
ghbc1pp24    log    factor    99.96766      1.00e-04    10000    ghb1    1    0
ghbc1pp25    log    factor    99.97347      1.00e-04    10000    ghb1    1    0
ghbc1pp26    log    factor    99.97787      1.00e-04    10000    ghb1    1    0
ghbc1pp27    log    factor    99.98124      1.00e-04    10000    ghb1    1    0
ghbc1pp28    log    factor    99.98384      1.00e-04    10000    ghb1    1    0
ghbc1pp29    log    factor    99.98581      1.00e-04    10000    ghb1    1    0
ghbc1pp30    log    factor    99.98723      1.00e-04    10000    ghb1    1    0
ghbc1pp31    log    factor    99.98828      1.00e-04    10000    ghb1    1    0
ghbc1pp32    log    factor    99.98913      1.00e-04    10000    ghb1    1    0
ghbc1pp33    log    factor    99.98989      1.00e-04    10000    ghb1    1    0
ghbc1pp34    log    factor    99.99063      1.00e-04    10000    ghb1    1    0
ghbc1pp35    log    factor    99.99140      1.00e-04    10000    ghb1    1    0
ghbc1pp36    log    factor    99.99219      1.00e-04    10000    ghb1    1    0
ghbc1pp37    log    factor    99.99297      1.00e-04    10000    ghb1    1    0
ghbc1pp38    log    factor    99.99374      1.00e-04    10000    ghb1    1    0
ghbc1pp39    log    factor    99.99448      1.00e-04    10000    ghb1    1    0
ghbc1pp40    log    factor    99.99520      1.00e-04    10000    ghb1    1    0
ghbc1pp41    log    factor    99.99591      1.00e-04    10000    ghb1    1    0
ghbc3pp01    log    factor    99.94168      1.00e-04    10000    ghb3    1    0
ghbc3pp02    log    factor    99.92597      1.00e-04    10000    ghb3    1    0
ghbc3pp03    log    factor    99.90704      1.00e-04    10000    ghb3    1    0
ghbc3pp04    log    factor    99.88425      1.00e-04    10000    ghb3    1    0
ghbc3pp05    log    factor    99.85710      1.00e-04    10000    ghb3    1    0
ghbc3pp06    log    factor    99.82543      1.00e-04    10000    ghb3    1    0
ghbc3pp07    log    factor    99.78950      1.00e-04    10000    ghb3    1    0
ghbc3pp08    log    factor    99.75006      1.00e-04    10000    ghb3    1    0
ghbc3pp09    log    factor    99.70851      1.00e-04    10000    ghb3    1    0
ghbc3pp10    log    factor    99.66691      1.00e-04    10000    ghb3    1    0
ghbc3pp11    log    factor    99.62807      1.00e-04    10000    ghb3    1    0
ghbc3pp12    log    factor    99.59537      1.00e-04    10000    ghb3    1    0
ghbc3pp13    log    factor    99.57224      1.00e-04    10000    ghb3    1    0
ghbc3pp14    log    factor    99.56209      1.00e-04    10000    ghb3    1    0
ghbc3pp15    log    factor    99.56771      1.00e-04    10000    ghb3    1    0
ghbc3pp16    log    factor    99.58922      1.00e-04    10000    ghb3    1    0
ghbc3pp17    log    factor    99.62388      1.00e-04    10000    ghb3    1    0
ghbc3pp18    log    factor    99.66734      1.00e-04    10000    ghb3    1    0
ghbc3pp19    log    factor    99.71469      1.00e-04    10000    ghb3    1    0
ghbc3pp20    log    factor    99.76161      1.00e-04    10000    ghb3    1    0
ghbc3pp21    log    factor    99.80489      1.00e-04    10000    ghb3    1    0
ghbc3pp22    log    factor    99.84257      1.00e-04    10000    ghb3    1    0
ghbc3pp23    log    factor    99.87393      1.00e-04    10000    ghb3    1    0
ghbc3pp24    log    factor    99.89927      1.00e-04    10000    ghb3    1    0
ghbc3pp25    log    factor    99.91958      1.00e-04    10000    ghb3    1    0
ghbc3pp26    log    factor    99.93599      1.00e-04    10000    ghb3    1    0
ghbc3pp27    log    factor    99.94867      1.00e-04    10000    ghb3    1    0
ghbc3pp28    log    factor    99.95757      1.00e-04    10000    ghb3    1    0
ghbc3pp29    log    factor    99.96384      1.00e-04    10000    ghb3    1    0
ghbc3pp30    log    factor    99.96835      1.00e-04    10000    ghb3    1    0
ghbc3pp31    log    factor    99.97171      1.00e-04    10000    ghb3    1    0
ghbc3pp32    log    factor    99.97435      1.00e-04    10000    ghb3    1    0
ghbc3pp33    log    factor    99.97655      1.00e-04    10000    ghb3    1    0
ghbc3pp34    log    factor    99.97847      1.00e-04    10000    ghb3    1    0
ghbc3pp35    log    factor    99.98023      1.00e-04    10000    ghb3    1    0
ghbc3pp36    log    factor    99.98191      1.00e-04    10000    ghb3    1    0
ghbc3pp37    log    factor    99.98354      1.00e-04    10000    ghb3    1    0
ghbc3pp38    log    factor    99.98515      1.00e-04    10000    ghb3    1    0
ghbc3pp39    log    factor    99.98676      1.00e-04    10000    ghb3    1    0
ghbc3pp40    log    factor    99.98837      1.00e-04    10000    ghb3    1    0
ghbc3pp41    log    factor    99.98999      1.00e-04    10000    ghb3    1    0
kx1pp001    log    factor    4.327910      1.00e-03    1000    kx1    1    0
kx1pp002    log    factor    4.377967      1.00e-03    1000    kx1    1    0
kx1pp003    log    factor    4.506456      1.00e-03    1000    kx1    1    0
kx1pp004    log    factor    4.093359      1.00e-03    1000    kx1    1    0
kx1pp005    log    factor    2.794859      1.00e-03    1000    kx1    1    0
kx1pp006    log    factor    2.149392      1.00e-03    1000    kx1    1    0
kx1pp007    log    factor    2.098063      1.00e-03    1000    kx1    1    0
kx1pp008    log    factor    2.783257      1.00e-03    1000    kx1    1    0
kx1pp009    log    factor    3.478406      1.00e-03    1000    kx1    1    0
kx1pp010    log    factor    4.202070      1.00e-03    1000    kx1    1    0
kx1pp011    log    factor    4.469761      1.00e-03    1000    kx1    1    0
kx1pp012    log    factor    3.816914      1.00e-03    1000    kx1    1    0
kx1pp013    log    factor    5.321861      1.00e-03    1000    kx1    1    0
kx1pp014    log    factor    5.102521      1.00e-03    1000    kx1    1    0
kx1pp015    log    factor    5.425582      1.00e-03    1000    kx1    1    0
kx1pp016    log    factor    5.209476      1.00e-03    1000    kx1    1    0
kx1pp017    log    factor    5.026508      1.00e-03    1000    kx1    1    0
kx1pp018    log    factor    5.089846      1.00e-03    1000    kx1    1    0
kx1pp019    log    factor    5.160508      1.00e-03    1000    kx1    1    0
kx1pp020    log    factor    5.062590      1.00e-03    1000    kx1    1    0
kx1pp021    log    factor    4.057060      1.00e-03    1000    kx1    1    0
kx1pp022    log    factor    4.193817      1.00e-03    1000    kx1    1    0
kx1pp023    log    factor    4.197771      1.00e-03    1000    kx1    1    0
kx1pp024    log    factor    4.362543      1.00e-03    1000    kx1    1    0
kx1pp025    log    factor    4.222375      1.00e-03    1000    kx1    1    0
kx1pp026    log    factor    4.410168      1.00e-03    1000    kx1    1    0
kx1pp027    log    factor    4.085984      1.00e-03    1000    kx1    1    0
kx1pp028    log    factor    7.604878      1.00e-03    1000    kx1    1    0
kx1pp029    log    factor    6.470938      1.00e-03    1000    kx1    1    0
kx1pp030    log    factor    4.643366      1.00e-03    1000    kx1    1    0
kx1pp031    log    factor    5.056512      1.00e-03    1000    kx1    1    0
kx1pp032    log    factor    5.429667      1.00e-03    1000    kx1    1    0
kx1pp033    log    factor    4.846289      1.00e-03    1000    kx1    1    0
kx1pp034    log    factor    5.409656      1.00e-03    1000    kx1    1    0
kx1pp035    log    factor    6.144852      1.00e-03    1000    kx1    1    0
kx1pp036    log    factor    4.506320      1.00e-03    1000    kx1    1    0
kx1pp037    log    factor    4.768673      1.00e-03    1000    kx1    1    0
kx1pp038    log    factor    5.387227      1.00e-03    1000    kx1    1    0
kx1pp039    log    factor    5.514771      1.00e-03    1000    kx1    1    0
kx1pp040    log    factor    7.017041      1.00e-03    1000    kx1    1    0
kx1pp041    log    factor    8.041554      1.00e-03    1000    kx1    1    0
kx1pp042    log    factor    8.745628      1.00e-03    1000    kx1    1    0
kx1pp043    log    factor    7.048325      1.00e-03    1000    kx1    1    0
kx1pp044    log    factor    8.334136      1.00e-03    1000    kx1    1    0
kx1pp045    log    factor    8.791057      1.00e-03    1000    kx1    1    0
kx1pp046    log    factor    4.872129      1.00e-03    1000    kx1    1    0
kx1pp047    log    factor    7.207210      1.00e-03    1000    kx1    1    0
kx1pp048    log    factor    6.149761      1.00e-03    1000    kx1    1    0
kx1pp049    log    factor    5.086957      1.00e-03    1000    kx1    1    0
kx1pp050    log    factor    9.594251      1.00e-03    1000    kx1    1    0
kx1pp051    log    factor    12.21577      1.00e-03    1000    kx1    1    0
kx1pp052    log    factor    12.85057      1.00e-03    1000    kx1    1    0
kx1pp053    log    factor    4.667423      1.00e-03    1000    kx1    1    0
kx1pp054    log    factor    4.782944      1.00e-03    1000    kx1    1    0
kx1pp055    log    factor    4.723445      1.00e-03    1000    kx1    1    0
kx1pp056    log    factor    4.714730      1.00e-03    1000    kx1    1    0
kx1pp057    log    factor    4.322429      1.00e-03    1000    kx1    1    0
kx1pp058    log    factor    4.631172      1.00e-03    1000    kx1    1    0
kx1pp059    log    factor    4.716680      1.00e-03    1000    kx1    1    0
kx1pp060    log    factor    3.707839      1.00e-03    1000    kx1    1    0
kx1pp061    log    factor    4.376273      1.00e-03    1000    kx1    1    0
kx1pp062    log    factor    4.746763      1.00e-03    1000    kx1    1    0
kx1pp063    log    factor    4.810162      1.00e-03    1000    kx1    1    0
kx1pp064    log    factor    4.910985      1.00e-03    1000    kx1    1    0
kx1pp065    log    factor    4.912514      1.00e-03    1000    kx1    1    0
kx1pp066    log    factor    4.931566      1.00e-03    1000    kx1    1    0
kx1pp067    log    factor    4.795136      1.00e-03    1000    kx1    1    0
kx1pp068    log    factor    3.907147      1.00e-03    1000    kx1    1    0
kx1pp069    log    factor    3.149077      1.00e-03    1000    kx1    1    0
kx1pp070    log    factor    2.890177      1.00e-03    1000    kx1    1    0
kx1pp071    log    factor    3.327953      1.00e-03    1000    kx1    1    0
kx1pp072    log    factor    2.691474      1.00e-03    1000    kx1    1    0
kx1pp073    log    factor    4.519771      1.00e-03    1000    kx1    1    0
kx1pp074    log    factor    4.589533      1.00e-03    1000    kx1    1    0
kx1pp075    log    factor    4.626608      1.00e-03    1000    kx1    1    0
kx1pp076    log    factor    4.613635      1.00e-03    1000    kx1    1    0
kx1pp077    log    factor    3.391055      1.00e-03    1000    kx1    1    0
kx1pp078    log    factor    3.603936      1.00e-03    1000    kx1    1    0
kx1pp079    log    factor    4.290439      1.00e-03    1000    kx1    1    0
kx1pp080    log    factor    4.972578      1.00e-03    1000    kx1    1    0
kx1pp081    log    factor    4.896861      1.00e-03    1000    kx1    1    0
kx1pp082    log    factor    4.744765      1.00e-03    1000    kx1    1    0
kx1pp083    log    factor    5.435700      1.00e-03    1000    kx1    1    0
kx1pp084    log    factor    5.260638      1.00e-03    1000    kx1    1    0
kx1pp085    log    factor    4.918416      1.00e-03    1000    kx1    1    0
kx1pp086    log    factor    4.715081      1.00e-03    1000    kx1    1    0
kx1pp087    log    factor    4.716287      1.00e-03    1000    kx1    1    0
kx1pp088    log    factor    4.896677      1.00e-03    1000    kx1    1    0
kx1pp089    log    factor    7.825796      1.00e-03    1000    kx1    1    0
kx1pp090    log    factor    6.849757      1.00e-03    1000    kx1    1    0
kx1pp091    log    factor    6.011765      1.00e-03    1000    kx1    1    0
kx1pp092    log    factor    5.648994      1.00e-03    1000    kx1    1    0
kx1pp093    log    factor    4.705231      1.00e-03    1000    kx1    1    0
kx1pp094    log    factor    4.809439      1.00e-03    1000    kx1    1    0
kx1pp095    log    factor    4.613930      1.00e-03    1000    kx1    1    0
kx1pp096    log    factor    5.076179      1.00e-03    1000    kx1    1    0
kx1pp097    log    factor    5.848454      1.00e-03    1000    kx1    1    0
kx1pp098    log    factor    4.789476      1.00e-03    1000    kx1    1    0
kx1pp099    log    factor    4.579220      1.00e-03    1000    kx1    1    0
kx1pp100    log    factor    4.701727      1.00e-03    1000    kx1    1    0
kx1pp101    log    factor    4.411273      1.00e-03    1000    kx1    1    0
kx1pp102    log    factor    4.692253      1.00e-03    1000    kx1    1    0
kx1pp103    log    factor    4.893949      1.00e-03    1000    kx1    1    0
kx1pp104    log    factor    4.870275      1.00e-03    1000    kx1    1    0
kx1pp105    log    factor    2.964662      1.00e-03    1000    kx1    1    0
kx1pp106    log    factor    4.963618      1.00e-03    1000    kx1    1    0
kx1pp107    log    factor    5.375256      1.00e-03    1000    kx1    1    0
kx1pp108    log    factor    7.573186      1.00e-03    1000    kx1    1    0
kx1pp109    log    factor    12.26214      1.00e-03    1000    kx1    1    0
kx1pp110    log    factor    3.128621      1.00e-03    1000    kx1    1    0
kx1pp111    log    factor    4.202557      1.00e-03    1000    kx1    1    0
kx1pp112    log    factor    5.299041      1.00e-03    1000    kx1    1    0
kx1pp113    log    factor    6.378580      1.00e-03    1000    kx1    1    0
kx1pp114    log    factor    6.317213      1.00e-03    1000    kx1    1    0
kx1pp115    log    factor    8.624068      1.00e-03    1000    kx1    1    0
kx1pp116    log    factor    7.172925      1.00e-03    1000    kx1    1    0
kx1pp117    log    factor    7.159487      1.00e-03    1000    kx1    1    0
kx1pp118    log    factor    8.613945      1.00e-03    1000    kx1    1    0
kx1pp119    log    factor    9.750793      1.00e-03    1000    kx1    1    0
kx1pp120    log    factor    11.31807      1.00e-03    1000    kx1    1    0
kx1pp121    log    factor    5.215914      1.00e-03    1000    kx1    1    0
kx1pp122    log    factor    4.225225      1.00e-03    1000    kx1    1    0
kx1pp123    log    factor    4.362733      1.00e-03    1000    kx1    1    0
kx1pp124    log    factor    4.194912      1.00e-03    1000    kx1    1    0
kx1pp125    log    factor    5.778298      1.00e-03    1000    kx1    1    0
kx1pp126    log    factor    6.711244      1.00e-03    1000    kx1    1    0
kx1pp127    log    factor    6.644175      1.00e-03    1000    kx1    1    0
kx1pp128    log    factor    9.293441      1.00e-03    1000    kx1    1    0
kx1pp129    log    factor    6.931523      1.00e-03    1000    kx1    1    0
kx1pp130    log    factor    5.889627      1.00e-03    1000    kx1    1    0
kx1pp131    log    factor    6.074213      1.00e-03    1000    kx1    1    0
kx1pp132    log    factor    6.854391      1.00e-03    1000    kx1    1    0
kx1pp133    log    factor    7.243524      1.00e-03    1000    kx1    1    0
kx1pp134    log    factor    6.870291      1.00e-03    1000    kx1    1    0
kx1pp135    log    factor    9.105476      1.00e-03    1000    kx1    1    0
kx1pp136    log    factor    6.306945      1.00e-03    1000    kx1    1    0
kx1pp137    log    factor    5.918580      1.00e-03    1000    kx1    1    0
kx1pp138    log    factor    5.789559      1.00e-03    1000    kx1    1    0
kx1pp139    log    factor    10.50398      1.00e-03    1000    kx1    1    0
kx1pp140    log    factor    5.763403      1.00e-03    1000    kx1    1    0
kx1pp141    log    factor    5.270527      1.00e-03    1000    kx1    1    0
kx1pp142    log    factor    5.081061      1.00e-03    1000    kx1    1    0
kx1pp143    log    factor    4.508934      1.00e-03    1000    kx1    1    0
kx1pp144    log    factor    4.147444      1.00e-03    1000    kx1    1    0
kx1pp145    log    factor    3.529345      1.00e-03    1000    kx1    1    0
kx1pp146    log    factor    3.068513      1.00e-03    1000    kx1    1    0
kx1pp147    log    factor    2.398389      1.00e-03    1000    kx1    1    0
kx1pp148    log    factor    2.700290      1.00e-03    1000    kx1    1    0
kx1pp149    log    factor    2.090612      1.00e-03    1000    kx1    1    0
kx1pp150    log    factor    2.373561      1.00e-03    1000    kx1    1    0
kx1pp151    log    factor    2.840477      1.00e-03    1000    kx1    1    0
kx1pp152    log    factor    2.877705      1.00e-03    1000    kx1    1    0
kx1pp153    log    factor    3.424254      1.00e-03    1000    kx1    1    0
kx1pp154    log    factor    4.319916      1.00e-03    1000    kx1    1    0
kx1pp155    log    factor    5.238236      1.00e-03    1000    kx1    1    0
kx1pp156    log    factor    3.671311      1.00e-03    1000    kx1    1    0
kx1pp157    log    factor    3.468658      1.00e-03    1000    kx1    1    0
kx1pp158    log    factor    4.307663      1.00e-03    1000    kx1    1    0
kx1pp159    log    factor    3.907667      1.00e-03    1000    kx1    1    0
kx1pp160    log    factor    4.518675      1.00e-03    1000    kx1    1    0
kx1pp161    log    factor    4.322033      1.00e-03    1000    kx1    1    0
kx1pp162    log    factor    4.482002      1.00e-03    1000    kx1    1    0
kx1pp163    log    factor    4.351429      1.00e-03    1000    kx1    1    0
kx1pp164    log    factor    4.534892      1.00e-03    1000    kx1    1    0
kx1pp165    log    factor    4.589362      1.00e-03    1000    kx1    1    0
kx1pp166    log    factor    4.125414      1.00e-03    1000    kx1    1    0
kx1pp167    log    factor    4.384787      1.00e-03    1000    kx1    1    0
kx1pp168    log    factor    4.578018      1.00e-03    1000    kx1    1    0
kx1pp169    log    factor    4.752709      1.00e-03    1000    kx1    1    0
kx1pp170    log    factor    5.546070      1.00e-03    1000    kx1    1    0
kx1pp171    log    factor    4.550659      1.00e-03    1000    kx1    1    0
kx1pp172    log    factor    5.798857      1.00e-03    1000    kx1    1    0
kx1pp173    log    factor    5.877456      1.00e-03    1000    kx1    1    0
kx1pp174    log    factor    6.176982      1.00e-03    1000    kx1    1    0
kx1pp175    log    factor    6.808630      1.00e-03    1000    kx1    1    0
kx1pp176    log    factor    6.666246      1.00e-03    1000    kx1    1    0
kx1pp177    log    factor    4.644863      1.00e-03    1000    kx1    1    0
kx1pp178    log    factor    6.519758      1.00e-03    1000    kx1    1    0
kx1pp179    log    factor    4.087571      1.00e-03    1000    kx1    1    0
kx1pp180    log    factor    4.265205      1.00e-03    1000    kx1    1    0
kx1pp181    log    factor    4.481029      1.00e-03    1000    kx1    1    0
kx1pp182    log    factor    4.651693      1.00e-03    1000    kx1    1    0
kx1pp183    log    factor    5.000885      1.00e-03    1000    kx1    1    0
kx1pp184    log    factor    4.881875      1.00e-03    1000    kx1    1    0
kx1pp185    log    factor    4.739894      1.00e-03    1000    kx1    1    0
kx1pp186    log    factor    4.663833      1.00e-03    1000    kx1    1    0
kx1pp187    log    factor    5.080152      1.00e-03    1000    kx1    1    0
kx1pp188    log    factor    4.492966      1.00e-03    1000    kx1    1    0
kx1pp189    log    factor    4.358973      1.00e-03    1000    kx1    1    0
kx1pp190    log    factor    4.229805      1.00e-03    1000    kx1    1    0
kx1pp191    log    factor    4.035274      1.00e-03    1000    kx1    1    0
kx1pp192    log    factor    4.088366      1.00e-03    1000    kx1    1    0
kx1pp193    log    factor    4.210718      1.00e-03    1000    kx1    1    0
kx1pp194    log    factor    4.271515      1.00e-03    1000    kx1    1    0
kx1pp195    log    factor    4.407742      1.00e-03    1000    kx1    1    0
kx1pp196    log    factor    4.517722      1.00e-03    1000    kx1    1    0
kx1pp197    log    factor    4.853458      1.00e-03    1000    kx1    1    0
kx1pp198    log    factor    3.932119      1.00e-03    1000    kx1    1    0
kx1pp199    log    factor    3.810140      1.00e-03    1000    kx1    1    0
kx1pp200    log    factor    4.051798      1.00e-03    1000    kx1    1    0
kx1pp201    log    factor    4.578988      1.00e-03    1000    kx1    1    0
kx1pp202    log    factor    5.734866      1.00e-03    1000    kx1    1    0
kx1pp203    log    factor    4.647692      1.00e-03    1000    kx1    1    0
kx1pp204    log    factor    4.715731      1.00e-03    1000    kx1    1    0
kx1pp205    log    factor    4.725018      1.00e-03    1000    kx1    1    0
kx1pp206    log    factor    4.332249      1.00e-03    1000    kx1    1    0
kx1pp207    log    factor    3.385585      1.00e-03    1000    kx1    1    0
kx1pp208    log    factor    2.509997      1.00e-03    1000    kx1    1    0
kx1pp209    log    factor    3.680215      1.00e-03    1000    kx1    1    0
kx1pp210    log    factor    4.679856      1.00e-03    1000    kx1    1    0
kx1pp211    log    factor    4.561017      1.00e-03    1000    kx1    1    0
kx1pp212    log    factor    4.663282      1.00e-03    1000    kx1    1    0
kx1pp213    log    factor    4.622969      1.00e-03    1000    kx1    1    0
kx1pp214    log    factor    4.451919      1.00e-03    1000    kx1    1    0
kx1pp215    log    factor    4.304520      1.00e-03    1000    kx1    1    0
kx1pp216    log    factor    4.297647      1.00e-03    1000    kx1    1    0
kx1pp217    log    factor    3.967832      1.00e-03    1000    kx1    1    0
kx1pp218    log    factor    3.921739      1.00e-03    1000    kx1    1    0
kx1pp219    log    factor    3.626081      1.00e-03    1000    kx1    1    0
kx1pp220    log    factor    3.967515      1.00e-03    1000    kx1    1    0
kx1pp221    log    factor    3.632052      1.00e-03    1000    kx1    1    0
kx1pp222    log    factor    3.325036      1.00e-03    1000    kx1    1    0
kx1pp223    log    factor    3.271546      1.00e-03    1000    kx1    1    0
kx1pp224    log    factor    3.548156      1.00e-03    1000    kx1    1    0
kx1pp225    log    factor    3.247990      1.00e-03    1000    kx1    1    0
kx1pp226    log    factor    3.713651      1.00e-03    1000    kx1    1    0
kx1pp227    log    factor    4.083082      1.00e-03    1000    kx1    1    0
kx1pp228    log    factor    4.093728      1.00e-03    1000    kx1    1    0
kx1pp229    log    factor    4.514706      1.00e-03    1000    kx1    1    0
kx1pp230    log    factor    4.508162      1.00e-03    1000    kx1    1    0
kx1pp231    log    factor    4.652516      1.00e-03    1000    kx1    1    0
kx1pp232    log    factor    4.678674      1.00e-03    1000    kx1    1    0
kx1pp233    log    factor    4.705062      1.00e-03    1000    kx1    1    0
kx1pp234    log    factor    4.782899      1.00e-03    1000    kx1    1    0
kx1pp235    log    factor    4.607057      1.00e-03    1000    kx1    1    0
kx1pp236    log    factor    4.424489      1.00e-03    1000    kx1    1    0
kx1pp237    log    factor    4.373504      1.00e-03    1000    kx1    1    0
kx1pp238    log    factor    4.152870      1.00e-03    1000    kx1    1    0
kx1pp239    log    factor    4.439331      1.00e-03    1000    kx1    1    0
kx1pp240    log    factor    4.214549      1.00e-03    1000    kx1    1    0
kx1pp241    log    factor    4.114811      1.00e-03    1000    kx1    1    0
kx1pp242    log    factor    4.265128      1.00e-03    1000    kx1    1    0
kx1pp243    log    factor    4.357629      1.00e-03    1000    kx1    1    0
kx1pp244    log    factor    4.434183      1.00e-03    1000    kx1    1    0
kx1pp245    log    factor    4.350728      1.00e-03    1000    kx1    1    0
kx1pp246    log    factor    4.046582      1.00e-03    1000    kx1    1    0
kx1pp247    log    factor    4.286738      1.00e-03    1000    kx1    1    0
kx1pp248    log    factor    4.344689      1.00e-03    1000    kx1    1    0
kx1pp249    log    factor    4.408388      1.00e-03    1000    kx1    1    0
kx1pp250    log    factor    4.310109      1.00e-03    1000    kx1    1    0
kx1pp251    log    factor    4.375107      1.00e-03    1000    kx1    1    0
kx1pp252    log    factor    4.531006      1.00e-03    1000    kx1    1    0
kx1pp253    log    factor    4.500087      1.00e-03    1000    kx1    1    0
kx1pp254    log    factor    4.308498      1.00e-03    1000    kx1    1    0
kx1pp255    log    factor    4.382851      1.00e-03    1000    kx1    1    0
kx1pp256    log    factor    4.425486      1.00e-03    1000    kx1    1    0
kx1pp257    log    factor    4.445849      1.00e-03    1000    kx1    1    0
kx1pp258    log    factor    4.533224      1.00e-03    1000    kx1    1    0
kx1pp259    log    factor    4.577964      1.00e-03    1000    kx1    1    0
kx1pp260    log    factor    4.642102      1.00e-03    1000    kx1    1    0
kx1pp261    log    factor    4.587996      1.00e-03    1000    kx1    1    0
kx1pp262    log    factor    4.573753      1.00e-03    1000    kx1    1    0
kx1pp263    log    factor    4.626663      1.00e-03    1000    kx1    1    0