pcf
* control data
restart estimation
     1375      4       9      0       1
     4         1       single point
10.0   -3.0     0.3   0.01    10
10.0   10.0   0.001  absparmax(1)=0.2 absparmax(2)=0.3
0.1
0    0.001   4    4   0.001   4
1   1   1   parsaveitn
* singular value decomposition
1
1375    5.0e-7
0
* parameter groups
pos_hg  absolute    0.01   0.0    switch   2.0   parabolic
pos_h   absolute    0.01   0.0    switch   2.0   parabolic
pos_f   absolute    0.01   0.0    switch   2.0   parabolic
k1_h    relative    0.01  0.0     switch   2.0   parabolic
k1_f    relative    0.01  0.0     switch   2.0   parabolic
k1_pp   relative    0.01  0.0     switch   2.0   parabolic
k2_pp   relative    0.01  0.0     switch   2.0   parabolic
k3_pp   relative    0.01  0.0     switch   2.0   parabolic
k4_pp   relative    0.01  0.0     switch   2.0   parabolic
* parameter data
pos_hg       none   absolute(1) 0.5      0.0       1.0       pos_hg     1.0    0.0
pos1_h       none   absolute(2) 0.5      0.0       1.0       pos_h      1.0    0.0
pos2_h       none   absolute(2) 0.5      0.0       1.0       pos_h      1.0    0.0
pos3_h       none   absolute(2) 0.5      0.0       1.0       pos_h      1.0    0.0
pos4_h       none   absolute(2) 0.5      0.0       1.0       pos_h      1.0    0.0
pos5_h       none   absolute(2) 0.5      0.0       1.0       pos_h      1.0    0.0
pos6_h       none   absolute(2) 0.5      0.0       1.0       pos_h      1.0    0.0
pos1_f1      none   absolute(2) 0.5      0.0       1.0       pos_f      1.0    0.0
pos2_f1      none   absolute(2) 0.5      0.0       1.0       pos_f      1.0    0.0
pos3_f1      none   absolute(2) 0.5      0.0       1.0       pos_f      1.0    0.0
pos4_f1      none   absolute(2) 0.5      0.0       1.0       pos_f      1.0    0.0
pos5_f1      none   absolute(2) 0.5      0.0       1.0       pos_f      1.0    0.0
pos1_f2      none   absolute(2) 0.5      0.0       1.0       pos_f      1.0    0.0
pos2_f2      none   absolute(2) 0.5      0.0       1.0       pos_f      1.0    0.0
pos3_f2      none   absolute(2) 0.5      0.0       1.0       pos_f      1.0    0.0
pos4_f2      none   absolute(2) 0.5      0.0       1.0       pos_f      1.0    0.0
k1_h         log    factor      0.05     1.0E-3    1.0       k1_h       1.0    0.0
k2_h         log    factor      0.05     1.0E-3    1.0       k1_h       1.0    0.0
k3_h         log    factor      0.05     1.0E-3    1.0       k1_h       1.0    0.0
k4_h         log    factor      0.05     1.0E-3    1.0       k1_h       1.0    0.0
k5_h         log    factor      0.05     1.0E-3    1.0       k1_h       1.0    0.0
k6_h         log    factor      0.05     1.0E-3    1.0       k1_h       1.0    0.0
k1_f1        log    factor      0.1      0.01      1.0       k1_f       1.0    0.0
k2_f1        log    factor      0.1      0.01      1.0       k1_f       1.0    0.0
k3_f1        log    factor      0.1      0.01      1.0       k1_f       1.0    0.0
k4_f1        log    factor      0.1      0.01      1.0       k1_f       1.0    0.0
k5_f1        log    factor      0.1      0.01      1.0       k1_f       1.0    0.0
k1_f2        log    factor      0.05     0.001     5.0       k1_f       1.0    0.0
k2_f2        log    factor      0.05     0.001     5.0       k1_f       1.0    0.0
k3_f2        log    factor      0.05     0.001     5.0       k1_f       1.0    0.0
k4_f2        log    factor      0.05     0.001     5.0       k1_f       1.0    0.0
k1_pp1       log    factor      1.0      0.1       10.0      k1_pp      1.0    0.0
k1_pp2       log    factor      1.0      0.1       10.0      k1_pp      1.0    0.0
k1_pp3       log    factor      1.0      0.1       10.0      k1_pp      1.0    0.0
k1_pp4       log    factor      1.0      0.1       10.0      k1_pp      1.0    0.0
k1_pp5       log    factor      1.0      0.1       10.0      k1_pp      1.0    0.0
k1_pp6       log    factor      1.0      0.1       10.0      k1_pp      1.0    0.0
k1_pp7       log    factor      1.0      0.1       10.0      k1_pp      1.0    0.0
k1_pp8       log    factor      1.0      0.1       10.0      k1_pp      1.0    0.0
k1_pp9       log    factor      1.0      0.1       10.0      k1_pp      1.0    0.0
k1_pp10      log    factor      1.0      0.1       10.0      k1_pp      1.0    0.0
k1_pp11      log    factor      1.0      0.1       10.0      k1_pp      1.0    0.0
k1_pp12      log    factor      1.0      0.1       10.0      k1_pp      1.0    0.0
k1_pp13      log    factor      1.0      0.1       10.0      k1_pp      1.0    0.0
k1_pp14      log    factor      1.0      0.1       10.0      k1_pp      1.0    0.0
k1_pp15      log    factor      1.0      0.1       10.0      k1_pp      1.0    0.0
k1_pp16      log    factor      1.0      0.1       10.0      k1_pp      1.0    0.0
k1_pp17      log    factor      1.0      0.1       10.0      k1_pp      1.0    0.0
k1_pp18      log    factor      1.0      0.1       10.0      k1_pp      1.0    0.0
k1_pp19      log    factor      1.0      0.1       10.0      k1_pp      1.0    0.0
k1_pp20      log    factor      1.0      0.1       10.0      k1_pp      1.0    0.0
k1_pp21      log    factor      1.0      0.1       10.0      k1_pp      1.0    0.0
k1_pp22      log    factor      1.0      0.1       10.0      k1_pp      1.0    0.0
k1_pp23      log    factor      1.0      0.1       10.0      k1_pp      1.0    0.0
k1_pp24      log    factor      1.0      0.1       10.0      k1_pp      1.0    0.0
k1_pp25      log    factor      1.0      0.1       10.0      k1_pp      1.0    0.0
k1_pp26      log    factor      1.0      0.1       10.0      k1_pp      1.0    0.0
k1_pp27      log    factor      1.0      0.1       10.0      k1_pp      1.0    0.0
k1_pp28      log    factor      1.0      0.1       10.0      k1_pp      1.0    0.0
k1_pp29      log    factor      1.0      0.1       10.0      k1_pp      1.0    0.0
k1_pp30      log    factor      1.0      0.1       10.0      k1_pp      1.0    0.0
k1_pp31      log    factor      1.0      0.1       10.0      k1_pp      1.0    0.0
k1_pp32      log    factor      1.0      0.1       10.0      k1_pp      1.0    0.0
k1_pp33      log    factor      1.0      0.1       10.0      k1_pp      1.0    0.0
k1_pp34      log    factor      1.0      0.1       10.0      k1_pp      1.0    0.0
k1_pp35      log    factor      1.0      0.1       10.0      k1_pp      1.0    0.0
k1_pp36      log    factor      1.0      0.1       10.0      k1_pp      1.0    0.0
k1_pp37      log    factor      1.0      0.1       10.0      k1_pp      1.0    0.0
k1_pp38      log    factor      1.0      0.1       10.0      k1_pp      1.0    0.0
k1_pp39      log    factor      1.0      0.1       10.0      k1_pp      1.0    0.0
k1_pp40      log    factor      1.0      0.1       10.0      k1_pp      1.0    0.0
k1_pp41      log    factor      1.0      0.1       10.0      k1_pp      1.0    0.0
k1_pp42      log    factor      1.0      0.1       10.0      k1_pp      1.0    0.0
k1_pp43      log    factor      1.0      0.1       10.0      k1_pp      1.0    0.0
k1_pp44      log    factor      1.0      0.1       10.0      k1_pp      1.0    0.0
k1_pp45      log    factor      1.0      0.1       10.0      k1_pp      1.0    0.0
k1_pp46      log    factor      1.0      0.1       10.0      k1_pp      1.0    0.0
k1_pp47      log    factor      1.0      0.1       10.0      k1_pp      1.0    0.0
k1_pp48      log    factor      1.0      0.1       10.0      k1_pp      1.0    0.0
k1_pp49      log    factor      1.0      0.1       10.0      k1_pp      1.0    0.0
k1_pp50      log    factor      1.0      0.1       10.0      k1_pp      1.0    0.0
k1_pp51      log    factor      1.0      0.1       10.0      k1_pp      1.0    0.0
k1_pp52      log    factor      1.0      0.1       10.0      k1_pp      1.0    0.0
k1_pp53      log    factor      1.0      0.1       10.0      k1_pp      1.0    0.0
k1_pp54      log    factor      1.0      0.1       10.0      k1_pp      1.0    0.0
k1_pp55      log    factor      1.0      0.1       10.0      k1_pp      1.0    0.0
k1_pp56      log    factor      1.0      0.1       10.0      k1_pp      1.0    0.0
k1_pp57      log    factor      1.0      0.1       10.0      k1_pp      1.0    0.0
k1_pp58      log    factor      1.0      0.1       10.0      k1_pp      1.0    0.0
k1_pp59      log    factor      1.0      0.1       10.0      k1_pp      1.0    0.0
k1_pp60      log    factor      1.0      0.1       10.0      k1_pp      1.0    0.0
k1_pp61      log    factor      1.0      0.1       10.0      k1_pp      1.0    0.0
k1_pp62      log    factor      1.0      0.1       10.0      k1_pp      1.0    0.0
k1_pp63      log    factor      1.0      0.1       10.0      k1_pp      1.0    0.0
k1_pp64      log    factor      1.0      0.1       10.0      k1_pp      1.0    0.0
k1_pp65      log    factor      1.0      0.1       10.0      k1_pp      1.0    0.0
k1_pp66      log    factor      1.0      0.1       10.0      k1_pp      1.0    0.0
k1_pp67      log    factor      1.0      0.1       10.0      k1_pp      1.0    0.0
k1_pp68      log    factor      1.0      0.1       10.0      k1_pp      1.0    0.0
k1_pp69      log    factor      1.0      0.1       10.0      k1_pp      1.0    0.0
k1_pp70      log    factor      1.0      0.1       10.0      k1_pp      1.0    0.0
k1_pp71      log    factor      1.0      0.1       10.0      k1_pp      1.0    0.0
k1_pp72      log    factor      1.0      0.1       10.0      k1_pp      1.0    0.0
k1_pp73      log    factor      1.0      0.1       10.0      k1_pp      1.0    0.0
k1_pp74      log    factor      1.0      0.1       10.0      k1_pp      1.0    0.0
k1_pp75      log    factor      1.0      0.1       10.0      k1_pp      1.0    0.0
k1_pp76      log    factor      1.0      0.1       10.0      k1_pp      1.0    0.0
k1_pp77      log    factor      1.0      0.1       10.0      k1_pp      1.0    0.0
k1_pp78      log    factor      1.0      0.1       10.0      k1_pp      1.0    0.0
k1_pp79      log    factor      1.0      0.1       10.0      k1_pp      1.0    0.0
k1_pp80      log    factor      1.0      0.1       10.0      k1_pp      1.0    0.0
k1_pp81      log    factor      1.0      0.1       10.0      k1_pp      1.0    0.0
k1_pp82      log    factor      1.0      0.1       10.0      k1_pp      1.0    0.0
k1_pp83      log    factor      1.0      0.1       10.0      k1_pp      1.0    0.0
k1_pp84      log    factor      1.0      0.1       10.0      k1_pp      1.0    0.0
k1_pp85      log    factor      1.0      0.1       10.0      k1_pp      1.0    0.0
k1_pp86      log    factor      1.0      0.1       10.0      k1_pp      1.0    0.0
k1_pp87      log    factor      1.0      0.1       10.0      k1_pp      1.0    0.0
k1_pp88      log    factor      1.0      0.1       10.0      k1_pp      1.0    0.0
k1_pp89      log    factor      1.0      0.1       10.0      k1_pp      1.0    0.0
k1_pp90      log    factor      1.0      0.1       10.0      k1_pp      1.0    0.0
k1_pp91      log    factor      1.0      0.1       10.0      k1_pp      1.0    0.0
k1_pp92      log    factor      1.0      0.1       10.0      k1_pp      1.0    0.0
k1_pp93      log    factor      1.0      0.1       10.0      k1_pp      1.0    0.0
k1_pp94      log    factor      1.0      0.1       10.0      k1_pp      1.0    0.0
k1_pp95      log    factor      1.0      0.1       10.0      k1_pp      1.0    0.0
k1_pp96      log    factor      1.0      0.1       10.0      k1_pp      1.0    0.0
k1_pp97      log    factor      1.0      0.1       10.0      k1_pp      1.0    0.0
k1_pp98      log    factor      1.0      0.1       10.0      k1_pp      1.0    0.0
k1_pp99      log    factor      1.0      0.1       10.0      k1_pp      1.0    0.0
k1_pp100     log    factor      1.0      0.1       10.0      k1_pp      1.0    0.0
k1_pp101     log    factor      1.0      0.1       10.0      k1_pp      1.0    0.0
k1_pp102     log    factor      1.0      0.1       10.0      k1_pp      1.0    0.0
k1_pp103     log    factor      1.0      0.1       10.0      k1_pp      1.0    0.0
k1_pp104     log    factor      1.0      0.1       10.0      k1_pp      1.0    0.0
k1_pp105     log    factor      1.0      0.1       10.0      k1_pp      1.0    0.0
k1_pp106     log    factor      1.0      0.1       10.0      k1_pp      1.0    0.0
k1_pp107     log    factor      1.0      0.1       10.0      k1_pp      1.0    0.0
k1_pp108     log    factor      1.0      0.1       10.0      k1_pp      1.0    0.0
k1_pp109     log    factor      1.0      0.1       10.0      k1_pp      1.0    0.0
k1_pp110     log    factor      1.0      0.1       10.0      k1_pp      1.0    0.0
k1_pp111     log    factor      1.0      0.1       10.0      k1_pp      1.0    0.0
k1_pp112     log    factor      1.0      0.1       10.0      k1_pp      1.0    0.0
k1_pp113     log    factor      1.0      0.1       10.0      k1_pp      1.0    0.0
k1_pp114     log    factor      1.0      0.1       10.0      k1_pp      1.0    0.0
k1_pp115     log    factor      1.0      0.1       10.0      k1_pp      1.0    0.0
k1_pp116     log    factor      1.0      0.1       10.0      k1_pp      1.0    0.0
k1_pp117     log    factor      1.0      0.1       10.0      k1_pp      1.0    0.0
k1_pp118     log    factor      1.0      0.1       10.0      k1_pp      1.0    0.0
k1_pp119     log    factor      1.0      0.1       10.0      k1_pp      1.0    0.0
k1_pp120     log    factor      1.0      0.1       10.0      k1_pp      1.0    0.0
k1_pp121     log    factor      1.0      0.1       10.0      k1_pp      1.0    0.0
k1_pp122     log    factor      1.0      0.1       10.0      k1_pp      1.0    0.0
k1_pp123     log    factor      1.0      0.1       10.0      k1_pp      1.0    0.0
k1_pp124     log    factor      1.0      0.1       10.0      k1_pp      1.0    0.0
k1_pp125     log    factor      1.0      0.1       10.0      k1_pp      1.0    0.0
k1_pp126     log    factor      1.0      0.1       10.0      k1_pp      1.0    0.0
k1_pp127     log    factor      1.0      0.1       10.0      k1_pp      1.0    0.0
k1_pp128     log    factor      1.0      0.1       10.0      k1_pp      1.0    0.0
k1_pp129     log    factor      1.0      0.1       10.0      k1_pp      1.0    0.0
k1_pp130     log    factor      1.0      0.1       10.0      k1_pp      1.0    0.0
k1_pp131     log    factor      1.0      0.1       10.0      k1_pp      1.0    0.0
k1_pp132     log    factor      1.0      0.1       10.0      k1_pp      1.0    0.0
k1_pp133     log    factor      1.0      0.1       10.0      k1_pp      1.0    0.0
k1_pp134     log    factor      1.0      0.1       10.0      k1_pp      1.0    0.0
k1_pp135     log    factor      1.0      0.1       10.0      k1_pp      1.0    0.0
k1_pp136     log    factor      1.0      0.1       10.0      k1_pp      1.0    0.0
k1_pp137     log    factor      1.0      0.1       10.0      k1_pp      1.0    0.0
k1_pp138     log    factor      1.0      0.1       10.0      k1_pp      1.0    0.0
k1_pp139     log    factor      1.0      0.1       10.0      k1_pp      1.0    0.0
k1_pp140     log    factor      1.0      0.1       10.0      k1_pp      1.0    0.0
k1_pp141     log    factor      1.0      0.1       10.0      k1_pp      1.0    0.0
k1_pp142     log    factor      1.0      0.1       10.0      k1_pp      1.0    0.0
k1_pp143     log    factor      1.0      0.1       10.0      k1_pp      1.0    0.0
k1_pp144     log    factor      1.0      0.1       10.0      k1_pp      1.0    0.0
k1_pp145     log    factor      1.0      0.1       10.0      k1_pp      1.0    0.0
k1_pp146     log    factor      1.0      0.1       10.0      k1_pp      1.0    0.0
k1_pp147     log    factor      1.0      0.1       10.0      k1_pp      1.0    0.0
k1_pp148     log    factor      1.0      0.1       10.0      k1_pp      1.0    0.0
k1_pp149     log    factor      1.0      0.1       10.0      k1_pp      1.0    0.0
k1_pp150     log    factor      1.0      0.1       10.0      k1_pp      1.0    0.0
k1_pp151     log    factor      1.0      0.1       10.0      k1_pp      1.0    0.0
k1_pp152     log    factor      1.0      0.1       10.0      k1_pp      1.0    0.0
k1_pp153     log    factor      1.0      0.1       10.0      k1_pp      1.0    0.0
k1_pp154     log    factor      1.0      0.1       10.0      k1_pp      1.0    0.0
k1_pp155     log    factor      1.0      0.1       10.0      k1_pp      1.0    0.0
k1_pp156     log    factor      1.0      0.1       10.0      k1_pp      1.0    0.0
k1_pp157     log    factor      1.0      0.1       10.0      k1_pp      1.0    0.0
k1_pp158     log    factor      1.0      0.1       10.0      k1_pp      1.0    0.0
k1_pp159     log    factor      1.0      0.1       10.0      k1_pp      1.0    0.0
k1_pp160     log    factor      1.0      0.1       10.0      k1_pp      1.0    0.0
k1_pp161     log    factor      1.0      0.1       10.0      k1_pp      1.0    0.0
k1_pp162     log    factor      1.0      0.1       10.0      k1_pp      1.0    0.0
k1_pp163     log    factor      1.0      0.1       10.0      k1_pp      1.0    0.0
k1_pp164     log    factor      1.0      0.1       10.0      k1_pp      1.0    0.0
k1_pp165     log    factor      1.0      0.1       10.0      k1_pp      1.0    0.0
k1_pp166     log    factor      1.0      0.1       10.0      k1_pp      1.0    0.0
k1_pp167     log    factor      1.0      0.1       10.0      k1_pp      1.0    0.0
k1_pp168     log    factor      1.0      0.1       10.0      k1_pp      1.0    0.0
k1_pp169     log    factor      1.0      0.1       10.0      k1_pp      1.0    0.0
k1_pp170     log    factor      1.0      0.1       10.0      k1_pp      1.0    0.0
k1_pp171     log    factor      1.0      0.1       10.0      k1_pp      1.0    0.0
k1_pp172     log    factor      1.0      0.1       10.0      k1_pp      1.0    0.0
k1_pp173     log    factor      1.0      0.1       10.0      k1_pp      1.0    0.0
k1_pp174     log    factor      1.0      0.1       10.0      k1_pp      1.0    0.0
k1_pp175     log    factor      1.0      0.1       10.0      k1_pp      1.0    0.0
k1_pp176     log    factor      1.0      0.1       10.0      k1_pp      1.0    0.0
k1_pp177     log    factor      1.0      0.1       10.0      k1_pp      1.0    0.0
k1_pp178     log    factor      1.0      0.1       10.0      k1_pp      1.0    0.0
k1_pp179     log    factor      1.0      0.1       10.0      k1_pp      1.0    0.0
k1_pp180     log    factor      1.0      0.1       10.0      k1_pp      1.0    0.0
k1_pp181     log    factor      1.0      0.1       10.0      k1_pp      1.0    0.0
k1_pp182     log    factor      1.0      0.1       10.0      k1_pp      1.0    0.0
k1_pp183     log    factor      1.0      0.1       10.0      k1_pp      1.0    0.0
k1_pp184     log    factor      1.0      0.1       10.0      k1_pp      1.0    0.0
k1_pp185     log    factor      1.0      0.1       10.0      k1_pp      1.0    0.0
k1_pp186     log    factor      1.0      0.1       10.0      k1_pp      1.0    0.0
k1_pp187     log    factor      1.0      0.1       10.0      k1_pp      1.0    0.0
k1_pp188     log    factor      1.0      0.1       10.0      k1_pp      1.0    0.0
k1_pp189     log    factor      1.0      0.1       10.0      k1_pp      1.0    0.0
k1_pp190     log    factor      1.0      0.1       10.0      k1_pp      1.0    0.0
k1_pp191     log    factor      1.0      0.1       10.0      k1_pp      1.0    0.0
k1_pp192     log    factor      1.0      0.1       10.0      k1_pp      1.0    0.0
k1_pp193     log    factor      1.0      0.1       10.0      k1_pp      1.0    0.0
k1_pp194     log    factor      1.0      0.1       10.0      k1_pp      1.0    0.0
k1_pp195     log    factor      1.0      0.1       10.0      k1_pp      1.0    0.0
k1_pp196     log    factor      1.0      0.1       10.0      k1_pp      1.0    0.0
k1_pp197     log    factor      1.0      0.1       10.0      k1_pp      1.0    0.0
k1_pp198     log    factor      1.0      0.1       10.0      k1_pp      1.0    0.0
k1_pp199     log    factor      1.0      0.1       10.0      k1_pp      1.0    0.0
k1_pp200     log    factor      1.0      0.1       10.0      k1_pp      1.0    0.0
k1_pp201     log    factor      1.0      0.1       10.0      k1_pp      1.0    0.0
k1_pp202     log    factor      1.0      0.1       10.0      k1_pp      1.0    0.0
k1_pp203     log    factor      1.0      0.1       10.0      k1_pp      1.0    0.0
k1_pp204     log    factor      1.0      0.1       10.0      k1_pp      1.0    0.0
k1_pp205     log    factor      1.0      0.1       10.0      k1_pp      1.0    0.0
k1_pp206     log    factor      1.0      0.1       10.0      k1_pp      1.0    0.0
k1_pp207     log    factor      1.0      0.1       10.0      k1_pp      1.0    0.0
k1_pp208     log    factor      1.0      0.1       10.0      k1_pp      1.0    0.0
k1_pp209     log    factor      1.0      0.1       10.0      k1_pp      1.0    0.0
k1_pp210     log    factor      1.0      0.1       10.0      k1_pp      1.0    0.0
k1_pp211     log    factor      1.0      0.1       10.0      k1_pp      1.0    0.0
k1_pp212     log    factor      1.0      0.1       10.0      k1_pp      1.0    0.0
k1_pp213     log    factor      1.0      0.1       10.0      k1_pp      1.0    0.0
k1_pp214     log    factor      1.0      0.1       10.0      k1_pp      1.0    0.0
k1_pp215     log    factor      1.0      0.1       10.0      k1_pp      1.0    0.0
k1_pp216     log    factor      1.0      0.1       10.0      k1_pp      1.0    0.0
k1_pp217     log    factor      1.0      0.1       10.0      k1_pp      1.0    0.0
k1_pp218     log    factor      1.0      0.1       10.0      k1_pp      1.0    0.0
k1_pp219     log    factor      1.0      0.1       10.0      k1_pp      1.0    0.0
k1_pp220     log    factor      1.0      0.1       10.0      k1_pp      1.0    0.0
k1_pp221     log    factor      1.0      0.1       10.0      k1_pp      1.0    0.0
k1_pp222     log    factor      1.0      0.1       10.0      k1_pp      1.0    0.0
k1_pp223     log    factor      1.0      0.1       10.0      k1_pp      1.0    0.0
k1_pp224     log    factor      1.0      0.1       10.0      k1_pp      1.0    0.0
k1_pp225     log    factor      1.0      0.1       10.0      k1_pp      1.0    0.0
k1_pp226     log    factor      1.0      0.1       10.0      k1_pp      1.0    0.0
k1_pp227     log    factor      1.0      0.1       10.0      k1_pp      1.0    0.0
k1_pp228     log    factor      1.0      0.1       10.0      k1_pp      1.0    0.0
k1_pp229     log    factor      1.0      0.1       10.0      k1_pp      1.0    0.0
k1_pp230     log    factor      1.0      0.1       10.0      k1_pp      1.0    0.0
k1_pp231     log    factor      1.0      0.1       10.0      k1_pp      1.0    0.0
k1_pp232     log    factor      1.0      0.1       10.0      k1_pp      1.0    0.0
k1_pp233     log    factor      1.0      0.1       10.0      k1_pp      1.0    0.0
k1_pp234     log    factor      1.0      0.1       10.0      k1_pp      1.0    0.0
k1_pp235     log    factor      1.0      0.1       10.0      k1_pp      1.0    0.0
k1_pp236     log    factor      1.0      0.1       10.0      k1_pp      1.0    0.0
k1_pp237     log    factor      1.0      0.1       10.0      k1_pp      1.0    0.0
k1_pp238     log    factor      1.0      0.1       10.0      k1_pp      1.0    0.0
k1_pp239     log    factor      1.0      0.1       10.0      k1_pp      1.0    0.0
k1_pp240     log    factor      1.0      0.1       10.0      k1_pp      1.0    0.0
k1_pp241     log    factor      1.0      0.1       10.0      k1_pp      1.0    0.0
k1_pp242     log    factor      1.0      0.1       10.0      k1_pp      1.0    0.0
k1_pp243     log    factor      1.0      0.1       10.0      k1_pp      1.0    0.0
k1_pp244     log    factor      1.0      0.1       10.0      k1_pp      1.0    0.0
k1_pp245     log    factor      1.0      0.1       10.0      k1_pp      1.0    0.0
k1_pp246     log    factor      1.0      0.1       10.0      k1_pp      1.0    0.0
k1_pp247     log    factor      1.0      0.1       10.0      k1_pp      1.0    0.0
k1_pp248     log    factor      1.0      0.1       10.0      k1_pp      1.0    0.0
k1_pp249     log    factor      1.0      0.1       10.0      k1_pp      1.0    0.0
k1_pp250     log    factor      1.0      0.1       10.0      k1_pp      1.0    0.0
k1_pp251     log    factor      1.0      0.1       10.0      k1_pp      1.0    0.0
k1_pp252     log    factor      1.0      0.1       10.0      k1_pp      1.0    0.0
k1_pp253     log    factor      1.0      0.1       10.0      k1_pp      1.0    0.0
k1_pp254     log    factor      1.0      0.1       10.0      k1_pp      1.0    0.0
k1_pp255     log    factor      1.0      0.1       10.0      k1_pp      1.0    0.0
k1_pp256     log    factor      1.0      0.1       10.0      k1_pp      1.0    0.0
k1_pp257     log    factor      1.0      0.1       10.0      k1_pp      1.0    0.0
k1_pp258     log    factor      1.0      0.1       10.0      k1_pp      1.0    0.0
k1_pp259     log    factor      1.0      0.1       10.0      k1_pp      1.0    0.0
k1_pp260     log    factor      1.0      0.1       10.0      k1_pp      1.0    0.0
k1_pp261     log    factor      1.0      0.1       10.0      k1_pp      1.0    0.0
k1_pp262     log    factor      1.0      0.1       10.0      k1_pp      1.0    0.0
k1_pp263     log    factor      1.0      0.1       10.0      k1_pp      1.0    0.0
k1_pp264     log    factor      1.0      0.1       10.0      k1_pp      1.0    0.0
k1_pp265     log    factor      1.0      0.1       10.0      k1_pp      1.0    0.0
k1_pp266     log    factor      1.0      0.1       10.0      k1_pp      1.0    0.0
k1_pp267     log    factor      1.0      0.1       10.0      k1_pp      1.0    0.0
k1_pp268     log    factor      1.0      0.1       10.0      k1_pp      1.0    0.0
k1_pp269     log    factor      1.0      0.1       10.0      k1_pp      1.0    0.0
k1_pp270     log    factor      1.0      0.1       10.0      k1_pp      1.0    0.0
k1_pp271     log    factor      1.0      0.1       10.0      k1_pp      1.0    0.0
k1_pp272     log    factor      1.0      0.1       10.0      k1_pp      1.0    0.0
k1_pp273     log    factor      1.0      0.1       10.0      k1_pp      1.0    0.0
k1_pp274     log    factor      1.0      0.1       10.0      k1_pp      1.0    0.0
k1_pp275     log    factor      1.0      0.1       10.0      k1_pp      1.0    0.0
k1_pp276     log    factor      1.0      0.1       10.0      k1_pp      1.0    0.0
k1_pp277     log    factor      1.0      0.1       10.0      k1_pp      1.0    0.0
k1_pp278     log    factor      1.0      0.1       10.0      k1_pp      1.0    0.0
k1_pp279     log    factor      1.0      0.1       10.0      k1_pp      1.0    0.0
k1_pp280     log    factor      1.0      0.1       10.0      k1_pp      1.0    0.0
k1_pp281     log    factor      1.0      0.1       10.0      k1_pp      1.0    0.0
k1_pp282     log    factor      1.0      0.1       10.0      k1_pp      1.0    0.0
k1_pp283     log    factor      1.0      0.1       10.0      k1_pp      1.0    0.0
k1_pp284     log    factor      1.0      0.1       10.0      k1_pp      1.0    0.0
k1_pp285     log    factor      1.0      0.1       10.0      k1_pp      1.0    0.0
k1_pp286     log    factor      1.0      0.1       10.0      k1_pp      1.0    0.0
k1_pp287     log    factor      1.0      0.1       10.0      k1_pp      1.0    0.0
k1_pp288     log    factor      1.0      0.1       10.0      k1_pp      1.0    0.0
k1_pp289     log    factor      1.0      0.1       10.0      k1_pp      1.0    0.0
k1_pp290     log    factor      1.0      0.1       10.0      k1_pp      1.0    0.0
k1_pp291     log    factor      1.0      0.1       10.0      k1_pp      1.0    0.0
k1_pp292     log    factor      1.0      0.1       10.0      k1_pp      1.0    0.0
k1_pp293     log    factor      1.0      0.1       10.0      k1_pp      1.0    0.0
k1_pp294     log    factor      1.0      0.1       10.0      k1_pp      1.0    0.0
k1_pp295     log    factor      1.0      0.1       10.0      k1_pp      1.0    0.0
k1_pp296     log    factor      1.0      0.1       10.0      k1_pp      1.0    0.0
k1_pp297     log    factor      1.0      0.1       10.0      k1_pp      1.0    0.0
k1_pp298     log    factor      1.0      0.1       10.0      k1_pp      1.0    0.0
k1_pp299     log    factor      1.0      0.1       10.0      k1_pp      1.0    0.0
k1_pp300     log    factor      1.0      0.1       10.0      k1_pp      1.0    0.0
k1_pp301     log    factor      1.0      0.1       10.0      k1_pp      1.0    0.0
k1_pp302     log    factor      1.0      0.1       10.0      k1_pp      1.0    0.0
k1_pp303     log    factor      1.0      0.1       10.0      k1_pp      1.0    0.0
k1_pp304     log    factor      1.0      0.1       10.0      k1_pp      1.0    0.0
k1_pp305     log    factor      1.0      0.1       10.0      k1_pp      1.0    0.0
k1_pp306     log    factor      1.0      0.1       10.0      k1_pp      1.0    0.0
k1_pp307     log    factor      1.0      0.1       10.0      k1_pp      1.0    0.0
k1_pp308     log    factor      1.0      0.1       10.0      k1_pp      1.0    0.0
k1_pp309     log    factor      1.0      0.1       10.0      k1_pp      1.0    0.0
k1_pp310     log    factor      1.0      0.1       10.0      k1_pp      1.0    0.0
k1_pp311     log    factor      1.0      0.1       10.0      k1_pp      1.0    0.0
k1_pp312     log    factor      1.0      0.1       10.0      k1_pp      1.0    0.0
k1_pp313     log    factor      1.0      0.1       10.0      k1_pp      1.0    0.0
k1_pp314     log    factor      1.0      0.1       10.0      k1_pp      1.0    0.0
k1_pp315     log    factor      1.0      0.1       10.0      k1_pp      1.0    0.0
k1_pp316     log    factor      1.0      0.1       10.0      k1_pp      1.0    0.0
k1_pp317     log    factor      1.0      0.1       10.0      k1_pp      1.0    0.0
k1_pp318     log    factor      1.0      0.1       10.0      k1_pp      1.0    0.0
k1_pp319     log    factor      1.0      0.1       10.0      k1_pp      1.0    0.0