BEGIN options
  PRINT_OPTION  summary
  COMPLEXITY    moderate
END options

BEGIN nonlinear
  OUTER_DVCLOSE  1.00000000E-06
  OUTER_MAXIMUM  100
END nonlinear

BEGIN linear
  INNER_MAXIMUM  300
  INNER_DVCLOSE  1.00000000E-06
  INNER_RCLOSE   1.00000000E-06
END linear
