BEGIN OPTIONS
END OPTIONS

BEGIN DIMENSIONS
  MAXBOUND  600
END DIMENSIONS

BEGIN PERIOD 1
#lay  row   col    head
  2     1     1     235.0
  2     1     2     235.0
  2     1     3     235.0
  2     1     4     235.0
  2     1     5     235.0
  2     1     6     235.0
  2     1     7     235.0
  2     1     8     235.0
  2     1     9     235.0
  2     1     10    235.0
  2     1     11    235.0
  2     1     12    235.0
  2     1     13    235.0
  2     1     14    235.0
  2     1     15    235.0
  2     1     16    235.0
  2     1     17    235.0
  2     1     18    235.0
  2     1     19    235.0
  2     1     20    235.0
  2     1     21    235.0
  2     1     22    235.0
  2     1     23    235.0
  2     1     24    235.0
  2     1     25    235.0
  2     1     26    235.0
  2     1     27    235.0
  2     1     28    235.0
  2     1     29    235.0
  2     1     30    235.0
  2     1     31    235.0
  2     1     32    235.0
  2     1     33    235.0
  2     1     34    235.0
  2     1     35    235.0
  2     1     36    235.0
  2     1     37    235.0
  2     1     38    235.0
  2     1     39    235.0
  2     1     40    235.0
  2     1     41    235.0
  2     1     42    235.0
  2     1     43    235.0
  2     1     44    235.0
  2     1     45    235.0
  2     1     46    235.0
  2     1     47    235.0
  2     1     48    235.0
  2     1     49    235.0
  2     1     50    235.0
  2     1     51    235.0
  2     1     52    235.0
  2     1     53    235.0
  2     1     54    235.0
  2     1     55    235.0
  2     1     56    235.0
  2     1     57    235.0
  2     1     58    235.0
  2     1     59    235.0
  2     1     60    235.0
  2     1     61    235.0
  2     1     62    235.0
  2     1     63    235.0
  2     1     64    235.0
  2     1     65    235.0
  2     1     66    235.0
  2     1     67    235.0
  2     1     68    235.0
  2     1     69    235.0
  2     1     70    235.0
  2     1     71    235.0
  2     1     72    235.0
  2     1     73    235.0
  2     1     74    235.0
  2     1     75    235.0
  2     1     76    235.0
  2     1     77    235.0
  2     1     78    235.0
  2     1     79    235.0
  2     1     80    235.0
  2     1     81    235.0
  2     1     82    235.0
  2     1     83    235.0
  2     1     84    235.0
  2     1     85    235.0
  2     1     86    235.0
  2     1     87    235.0
  2     1     88    235.0
  2     1     89    235.0
  2     1     90    235.0
  2     1     91    235.0
  2     1     92    235.0
  2     1     93    235.0
  2     1     94    235.0
  2     1     95    235.0
  2     1     96    235.0
  2     1     97    235.0
  2     1     98    235.0
  2     1     99    235.0
  2     1     100   235.0
  2     1     101   235.0
  2     1     102   235.0
  2     1     103   235.0
  2     1     104   235.0
  2     1     105   235.0
  2     1     106   235.0
  2     1     107   235.0
  2     1     108   235.0
  2     1     109   235.0
  2     1     110   235.0
  2     1     111   235.0
  2     1     112   235.0
  2     1     113   235.0
  2     1     114   235.0
  2     1     115   235.0
  2     1     116   235.0
  2     1     117   235.0
  2     1     118   235.0
  2     1     119   235.0
  2     1     120   235.0
  2     1     121   235.0
  2     1     122   235.0
  2     1     123   235.0
  2     1     124   235.0
  2     1     125   235.0
  2     1     126   235.0
  2     1     127   235.0
  2     1     128   235.0
  2     1     129   235.0
  2     1     130   235.0
  2     1     131   235.0
  2     1     132   235.0
  2     1     133   235.0
  2     1     134   235.0
  2     1     135   235.0
  2     1     136   235.0
  2     1     137   235.0
  2     1     138   235.0
  2     1     139   235.0
  2     1     140   235.0
  2     1     141   235.0
  2     1     142   235.0
  2     1     143   235.0
  2     1     144   235.0
  2     1     145   235.0
  2     1     146   235.0
  2     1     147   235.0
  2     1     148   235.0
  2     1     149   235.0
  2     1     150   235.0
  4     1     1     235.0
  4     1     2     235.0
  4     1     3     235.0
  4     1     4     235.0
  4     1     5     235.0
  4     1     6     235.0
  4     1     7     235.0
  4     1     8     235.0
  4     1     9     235.0
  4     1     10    235.0
  4     1     11    235.0
  4     1     12    235.0
  4     1     13    235.0
  4     1     14    235.0
  4     1     15    235.0
  4     1     16    235.0
  4     1     17    235.0
  4     1     18    235.0
  4     1     19    235.0
  4     1     20    235.0
  4     1     21    235.0
  4     1     22    235.0
  4     1     23    235.0
  4     1     24    235.0
  4     1     25    235.0
  4     1     26    235.0
  4     1     27    235.0
  4     1     28    235.0
  4     1     29    235.0
  4     1     30    235.0
  4     1     31    235.0
  4     1     32    235.0
  4     1     33    235.0
  4     1     34    235.0
  4     1     35    235.0
  4     1     36    235.0
  4     1     37    235.0
  4     1     38    235.0
  4     1     39    235.0
  4     1     40    235.0
  4     1     41    235.0
  4     1     42    235.0
  4     1     43    235.0
  4     1     44    235.0
  4     1     45    235.0
  4     1     46    235.0
  4     1     47    235.0
  4     1     48    235.0
  4     1     49    235.0
  4     1     50    235.0
  4     1     51    235.0
  4     1     52    235.0
  4     1     53    235.0
  4     1     54    235.0
  4     1     55    235.0
  4     1     56    235.0
  4     1     57    235.0
  4     1     58    235.0
  4     1     59    235.0
  4     1     60    235.0
  4     1     61    235.0
  4     1     62    235.0
  4     1     63    235.0
  4     1     64    235.0
  4     1     65    235.0
  4     1     66    235.0
  4     1     67    235.0
  4     1     68    235.0
  4     1     69    235.0
  4     1     70    235.0
  4     1     71    235.0
  4     1     72    235.0
  4     1     73    235.0
  4     1     74    235.0
  4     1     75    235.0
  4     1     76    235.0
  4     1     77    235.0
  4     1     78    235.0
  4     1     79    235.0
  4     1     80    235.0
  4     1     81    235.0
  4     1     82    235.0
  4     1     83    235.0
  4     1     84    235.0
  4     1     85    235.0
  4     1     86    235.0
  4     1     87    235.0
  4     1     88    235.0
  4     1     89    235.0
  4     1     90    235.0
  4     1     91    235.0
  4     1     92    235.0
  4     1     93    235.0
  4     1     94    235.0
  4     1     95    235.0
  4     1     96    235.0
  4     1     97    235.0
  4     1     98    235.0
  4     1     99    235.0
  4     1     100   235.0
  4     1     101   235.0
  4     1     102   235.0
  4     1     103   235.0
  4     1     104   235.0
  4     1     105   235.0
  4     1     106   235.0
  4     1     107   235.0
  4     1     108   235.0
  4     1     109   235.0
  4     1     110   235.0
  4     1     111   235.0
  4     1     112   235.0
  4     1     113   235.0
  4     1     114   235.0
  4     1     115   235.0
  4     1     116   235.0
  4     1     117   235.0
  4     1     118   235.0
  4     1     119   235.0
  4     1     120   235.0
  4     1     121   235.0
  4     1     122   235.0
  4     1     123   235.0
  4     1     124   235.0
  4     1     125   235.0
  4     1     126   235.0
  4     1     127   235.0
  4     1     128   235.0
  4     1     129   235.0
  4     1     130   235.0
  4     1     131   235.0
  4     1     132   235.0
  4     1     133   235.0
  4     1     134   235.0
  4     1     135   235.0
  4     1     136   235.0
  4     1     137   235.0
  4     1     138   235.0
  4     1     139   235.0
  4     1     140   235.0
  4     1     141   235.0
  4     1     142   235.0
  4     1     143   235.0
  4     1     144   235.0
  4     1     145   235.0
  4     1     146   235.0
  4     1     147   235.0
  4     1     148   235.0
  4     1     149   235.0
  4     1     150   235.0
  2     200     1     225.0
  2     200     2     225.0
  2     200     3     225.0
  2     200     4     225.0
  2     200     5     225.0
  2     200     6     225.0
  2     200     7     225.0
  2     200     8     225.0
  2     200     9     225.0
  2     200     10    225.0
  2     200     11    225.0
  2     200     12    225.0
  2     200     13    225.0
  2     200     14    225.0
  2     200     15    225.0
  2     200     16    225.0
  2     200     17    225.0
  2     200     18    225.0
  2     200     19    225.0
  2     200     20    225.0
  2     200     21    225.0
  2     200     22    225.0
  2     200     23    225.0
  2     200     24    225.0
  2     200     25    225.0
  2     200     26    225.0
  2     200     27    225.0
  2     200     28    225.0
  2     200     29    225.0
  2     200     30    225.0
  2     200     31    225.0
  2     200     32    225.0
  2     200     33    225.0
  2     200     34    225.0
  2     200     35    225.0
  2     200     36    225.0
  2     200     37    225.0
  2     200     38    225.0
  2     200     39    225.0
  2     200     40    225.0
  2     200     41    225.0
  2     200     42    225.0
  2     200     43    225.0
  2     200     44    225.0
  2     200     45    225.0
  2     200     46    225.0
  2     200     47    225.0
  2     200     48    225.0
  2     200     49    225.0
  2     200     50    225.0
  2     200     51    225.0
  2     200     52    225.0
  2     200     53    225.0
  2     200     54    225.0
  2     200     55    225.0
  2     200     56    225.0
  2     200     57    225.0
  2     200     58    225.0
  2     200     59    225.0
  2     200     60    225.0
  2     200     61    225.0
  2     200     62    225.0
  2     200     63    225.0
  2     200     64    225.0
  2     200     65    225.0
  2     200     66    225.0
  2     200     67    225.0
  2     200     68    225.0
  2     200     69    225.0
  2     200     70    225.0
  2     200     71    225.0
  2     200     72    225.0
  2     200     73    225.0
  2     200     74    225.0
  2     200     75    225.0
  2     200     76    225.0
  2     200     77    225.0
  2     200     78    225.0
  2     200     79    225.0
  2     200     80    225.0
  2     200     81    225.0
  2     200     82    225.0
  2     200     83    225.0
  2     200     84    225.0
  2     200     85    225.0
  2     200     86    225.0
  2     200     87    225.0
  2     200     88    225.0
  2     200     89    225.0
  2     200     90    225.0
  2     200     91    225.0
  2     200     92    225.0
  2     200     93    225.0
  2     200     94    225.0
  2     200     95    225.0
  2     200     96    225.0
  2     200     97    225.0
  2     200     98    225.0
  2     200     99    225.0
  2     200     100   225.0
  2     200     101   225.0
  2     200     102   225.0
  2     200     103   225.0
  2     200     104   225.0
  2     200     105   225.0
  2     200     106   225.0
  2     200     107   225.0
  2     200     108   225.0
  2     200     109   225.0
  2     200     110   225.0
  2     200     111   225.0
  2     200     112   225.0
  2     200     113   225.0
  2     200     114   225.0
  2     200     115   225.0
  2     200     116   225.0
  2     200     117   225.0
  2     200     118   225.0
  2     200     119   225.0
  2     200     120   225.0
  2     200     121   225.0
  2     200     122   225.0
  2     200     123   225.0
  2     200     124   225.0
  2     200     125   225.0
  2     200     126   225.0
  2     200     127   225.0
  2     200     128   225.0
  2     200     129   225.0
  2     200     130   225.0
  2     200     131   225.0
  2     200     132   225.0
  2     200     133   225.0
  2     200     134   225.0
  2     200     135   225.0
  2     200     136   225.0
  2     200     137   225.0
  2     200     138   225.0
  2     200     139   225.0
  2     200     140   225.0
  2     200     141   225.0
  2     200     142   225.0
  2     200     143   225.0
  2     200     144   225.0
  2     200     145   225.0
  2     200     146   225.0
  2     200     147   225.0
  2     200     148   225.0
  2     200     149   225.0
  2     200     150   225.0
  4     200     1     225.0
  4     200     2     225.0
  4     200     3     225.0
  4     200     4     225.0
  4     200     5     225.0
  4     200     6     225.0
  4     200     7     225.0
  4     200     8     225.0
  4     200     9     225.0
  4     200     10    225.0
  4     200     11    225.0
  4     200     12    225.0
  4     200     13    225.0
  4     200     14    225.0
  4     200     15    225.0
  4     200     16    225.0
  4     200     17    225.0
  4     200     18    225.0
  4     200     19    225.0
  4     200     20    225.0
  4     200     21    225.0
  4     200     22    225.0
  4     200     23    225.0
  4     200     24    225.0
  4     200     25    225.0
  4     200     26    225.0
  4     200     27    225.0
  4     200     28    225.0
  4     200     29    225.0
  4     200     30    225.0
  4     200     31    225.0
  4     200     32    225.0
  4     200     33    225.0
  4     200     34    225.0
  4     200     35    225.0
  4     200     36    225.0
  4     200     37    225.0
  4     200     38    225.0
  4     200     39    225.0
  4     200     40    225.0
  4     200     41    225.0
  4     200     42    225.0
  4     200     43    225.0
  4     200     44    225.0
  4     200     45    225.0
  4     200     46    225.0
  4     200     47    225.0
  4     200     48    225.0
  4     200     49    225.0
  4     200     50    225.0
  4     200     51    225.0
  4     200     52    225.0
  4     200     53    225.0
  4     200     54    225.0
  4     200     55    225.0
  4     200     56    225.0
  4     200     57    225.0
  4     200     58    225.0
  4     200     59    225.0
  4     200     60    225.0
  4     200     61    225.0
  4     200     62    225.0
  4     200     63    225.0
  4     200     64    225.0
  4     200     65    225.0
  4     200     66    225.0
  4     200     67    225.0
  4     200     68    225.0
  4     200     69    225.0
  4     200     70    225.0
  4     200     71    225.0
  4     200     72    225.0
  4     200     73    225.0
  4     200     74    225.0
  4     200     75    225.0
  4     200     76    225.0
  4     200     77    225.0
  4     200     78    225.0
  4     200     79    225.0
  4     200     80    225.0
  4     200     81    225.0
  4     200     82    225.0
  4     200     83    225.0
  4     200     84    225.0
  4     200     85    225.0
  4     200     86    225.0
  4     200     87    225.0
  4     200     88    225.0
  4     200     89    225.0
  4     200     90    225.0
  4     200     91    225.0
  4     200     92    225.0
  4     200     93    225.0
  4     200     94    225.0
  4     200     95    225.0
  4     200     96    225.0
  4     200     97    225.0
  4     200     98    225.0
  4     200     99    225.0
  4     200     100   225.0
  4     200     101   225.0
  4     200     102   225.0
  4     200     103   225.0
  4     200     104   225.0
  4     200     105   225.0
  4     200     106   225.0
  4     200     107   225.0
  4     200     108   225.0
  4     200     109   225.0
  4     200     110   225.0
  4     200     111   225.0
  4     200     112   225.0
  4     200     113   225.0
  4     200     114   225.0
  4     200     115   225.0
  4     200     116   225.0
  4     200     117   225.0
  4     200     118   225.0
  4     200     119   225.0
  4     200     120   225.0
  4     200     121   225.0
  4     200     122   225.0
  4     200     123   225.0
  4     200     124   225.0
  4     200     125   225.0
  4     200     126   225.0
  4     200     127   225.0
  4     200     128   225.0
  4     200     129   225.0
  4     200     130   225.0
  4     200     131   225.0
  4     200     132   225.0
  4     200     133   225.0
  4     200     134   225.0
  4     200     135   225.0
  4     200     136   225.0
  4     200     137   225.0
  4     200     138   225.0
  4     200     139   225.0
  4     200     140   225.0
  4     200     141   225.0
  4     200     142   225.0
  4     200     143   225.0
  4     200     144   225.0
  4     200     145   225.0
  4     200     146   225.0
  4     200     147   225.0
  4     200     148   225.0
  4     200     149   225.0
  4     200     150   225.0
END PERIOD 1
