pcf
* control data
restart estimation
     1375      4       9      0       1
     4         1       single point
10.0   -3.0     0.3   0.01    10
10.0   10.0   0.001  absparmax(1)=0.2 absparmax(2)=0.3
0.1
0    0.001   4    4   0.001   4
1   1   1   parsaveitn
* singular value decomposition
1
1375    5.0e-7
0
* parameter groups
pos_hg  absolute    0.01   0.0    switch   2.0   parabolic
pos_h   absolute    0.01   0.0    switch   2.0   parabolic
pos_f   absolute    0.01   0.0    switch   2.0   parabolic
k1_h    relative    0.01  0.0     switch   2.0   parabolic
k1_f    relative    0.01  0.0     switch   2.0   parabolic
k1_pp   relative    0.01  0.0     switch   2.0   parabolic
k2_pp   relative    0.01  0.0     switch   2.0   parabolic
k3_pp   relative    0.01  0.0     switch   2.0   parabolic
k4_pp   relative    0.01  0.0     switch   2.0   parabolic
* parameter data
pos_hg       none   absolute(1)   0.4646311      0.0       1.0       pos_hg     1.0    0.0
pos1_h       none   absolute(2)   0.7343271      0.0       1.0       pos_h      1.0    0.0
pos2_h       none   absolute(2)   0.4158523      0.0       1.0       pos_h      1.0    0.0
pos3_h       none   absolute(2)   0.5306248      0.0       1.0       pos_h      1.0    0.0
pos4_h       none   absolute(2)   0.2147364      0.0       1.0       pos_h      1.0    0.0
pos5_h       none   absolute(2)    0.000000      0.0       1.0       pos_h      1.0    0.0
pos6_h       none   absolute(2)   0.2587698      0.0       1.0       pos_h      1.0    0.0
pos1_f1      none   absolute(2)   0.5306211      0.0       1.0       pos_f      1.0    0.0
pos2_f1      none   absolute(2)   0.4325451      0.0       1.0       pos_f      1.0    0.0
pos3_f1      none   absolute(2)   0.2754928      0.0       1.0       pos_f      1.0    0.0
pos4_f1      none   absolute(2)    1.000000      0.0       1.0       pos_f      1.0    0.0
pos5_f1      none   absolute(2)    0.000000      0.0       1.0       pos_f      1.0    0.0
pos1_f2      none   absolute(2)   0.5086395      0.0       1.0       pos_f      1.0    0.0
pos2_f2      none   absolute(2)   0.1774481      0.0       1.0       pos_f      1.0    0.0
pos3_f2      none   absolute(2)   0.9380283      0.0       1.0       pos_f      1.0    0.0
pos4_f2      none   absolute(2)   0.5203101      0.0       1.0       pos_f      1.0    0.0
k1_h         log    factor   3.6362037E-02  1.0e-3    1.0       k1_h       1.0    0.0
k2_h         log    factor   7.2294794E-02  1.0e-3    1.0       k1_h       1.0    0.0
k3_h         log    factor   5.5712435E-02  1.0e-3    1.0       k1_h       1.0    0.0
k4_h         log    factor   4.6809278E-02  1.0e-3    1.0       k1_h       1.0    0.0
k5_h         log    factor   3.2839417E-02  1.0e-3    1.0       k1_h       1.0    0.0
k6_h         log    factor   6.9519207E-02  1.0e-3    1.0       k1_h       1.0    0.0
k1_f1        log    factor   0.1269229      0.01      1.0       k1_f       1.0    0.0
k2_f1        log    factor   0.1502070      0.01      1.0       k1_f       1.0    0.0
k3_f1        log    factor   0.1968989      0.01      1.0       k1_f       1.0    0.0
k4_f1        log    factor   0.1507771      0.01      1.0       k1_f       1.0    0.0
k5_f1        log    factor   0.2345536      0.01      1.0       k1_f       1.0    0.0
k1_f2        log    factor   5.7593342E-02  0.001     5.0       k1_f       1.0    0.0
k2_f2        log    factor   3.0327763E-02  0.001     5.0       k1_f       1.0    0.0
k3_f2        log    factor   1.8612893E-02  0.001     5.0       k1_f       1.0    0.0
k4_f2        log    factor   3.5279483E-02  0.001     5.0       k1_f       1.0    0.0
k1_pp1       log    factor   0.9214242      0.1       10.0      k1_pp      1.0    0.0
k1_pp2       log    factor   0.6865459      0.1       10.0      k1_pp      1.0    0.0
k1_pp3       log    factor    1.301924      0.1       10.0      k1_pp      1.0    0.0
k1_pp4       log    factor   0.9654810      0.1       10.0      k1_pp      1.0    0.0
k1_pp5       log    factor    1.544765      0.1       10.0      k1_pp      1.0    0.0
k1_pp6       log    factor    1.761381      0.1       10.0      k1_pp      1.0    0.0
k1_pp7       log    factor    1.572940      0.1       10.0      k1_pp      1.0    0.0
k1_pp8       log    factor    1.669662      0.1       10.0      k1_pp      1.0    0.0
k1_pp9       log    factor    1.667912      0.1       10.0      k1_pp      1.0    0.0
k1_pp10      log    factor    1.561049      0.1       10.0      k1_pp      1.0    0.0
k1_pp11      log    factor   0.7836897      0.1       10.0      k1_pp      1.0    0.0
k1_pp12      log    factor   0.6557242      0.1       10.0      k1_pp      1.0    0.0
k1_pp13      log    factor   0.4365007      0.1       10.0      k1_pp      1.0    0.0
k1_pp14      log    factor   0.4367875      0.1       10.0      k1_pp      1.0    0.0
k1_pp15      log    factor   0.3032252      0.1       10.0      k1_pp      1.0    0.0
k1_pp16      log    factor   0.3827491      0.1       10.0      k1_pp      1.0    0.0
k1_pp17      log    factor   0.9718192      0.1       10.0      k1_pp      1.0    0.0
k1_pp18      log    factor   0.7257453      0.1       10.0      k1_pp      1.0    0.0
k1_pp19      log    factor   0.5423880      0.1       10.0      k1_pp      1.0    0.0
k1_pp20      log    factor   0.9258051      0.1       10.0      k1_pp      1.0    0.0
k1_pp21      log    factor    1.130812      0.1       10.0      k1_pp      1.0    0.0
k1_pp22      log    factor    1.154514      0.1       10.0      k1_pp      1.0    0.0
k1_pp23      log    factor    1.033864      0.1       10.0      k1_pp      1.0    0.0
k1_pp24      log    factor    1.379755      0.1       10.0      k1_pp      1.0    0.0
k1_pp25      log    factor    1.371183      0.1       10.0      k1_pp      1.0    0.0
k1_pp26      log    factor    1.655144      0.1       10.0      k1_pp      1.0    0.0
k1_pp27      log    factor   0.8400128      0.1       10.0      k1_pp      1.0    0.0
k1_pp28      log    factor   0.3411214      0.1       10.0      k1_pp      1.0    0.0
k1_pp29      log    factor   0.3536143      0.1       10.0      k1_pp      1.0    0.0
k1_pp30      log    factor   0.3184575      0.1       10.0      k1_pp      1.0    0.0
k1_pp31      log    factor   0.2263315      0.1       10.0      k1_pp      1.0    0.0
k1_pp32      log    factor   0.2710945      0.1       10.0      k1_pp      1.0    0.0
k1_pp33      log    factor    1.603728      0.1       10.0      k1_pp      1.0    0.0
k1_pp34      log    factor   0.7429522      0.1       10.0      k1_pp      1.0    0.0
k1_pp35      log    factor   0.7838018      0.1       10.0      k1_pp      1.0    0.0
k1_pp36      log    factor    1.058074      0.1       10.0      k1_pp      1.0    0.0
k1_pp37      log    factor   0.9342301      0.1       10.0      k1_pp      1.0    0.0
k1_pp38      log    factor   0.6670417      0.1       10.0      k1_pp      1.0    0.0
k1_pp39      log    factor   0.9617035      0.1       10.0      k1_pp      1.0    0.0
k1_pp40      log    factor    1.259948      0.1       10.0      k1_pp      1.0    0.0
k1_pp41      log    factor    1.601123      0.1       10.0      k1_pp      1.0    0.0
k1_pp42      log    factor    1.073447      0.1       10.0      k1_pp      1.0    0.0
k1_pp43      log    factor   0.6512794      0.1       10.0      k1_pp      1.0    0.0
k1_pp44      log    factor   0.5582951      0.1       10.0      k1_pp      1.0    0.0
k1_pp45      log    factor   0.4680685      0.1       10.0      k1_pp      1.0    0.0
k1_pp46      log    factor   0.3424566      0.1       10.0      k1_pp      1.0    0.0
k1_pp47      log    factor   0.2927256      0.1       10.0      k1_pp      1.0    0.0
k1_pp48      log    factor   0.3021957      0.1       10.0      k1_pp      1.0    0.0
k1_pp49      log    factor    1.256508      0.1       10.0      k1_pp      1.0    0.0
k1_pp50      log    factor   0.8697662      0.1       10.0      k1_pp      1.0    0.0
k1_pp51      log    factor   0.9183127      0.1       10.0      k1_pp      1.0    0.0
k1_pp52      log    factor   0.9851931      0.1       10.0      k1_pp      1.0    0.0
k1_pp53      log    factor   0.8098054      0.1       10.0      k1_pp      1.0    0.0
k1_pp54      log    factor   0.7824039      0.1       10.0      k1_pp      1.0    0.0
k1_pp55      log    factor   0.6086040      0.1       10.0      k1_pp      1.0    0.0
k1_pp56      log    factor   0.5102423      0.1       10.0      k1_pp      1.0    0.0
k1_pp57      log    factor   0.8256290      0.1       10.0      k1_pp      1.0    0.0
k1_pp58      log    factor   0.9363568      0.1       10.0      k1_pp      1.0    0.0
k1_pp59      log    factor   0.7744348      0.1       10.0      k1_pp      1.0    0.0
k1_pp60      log    factor   0.9022452      0.1       10.0      k1_pp      1.0    0.0
k1_pp61      log    factor   0.5985804      0.1       10.0      k1_pp      1.0    0.0
k1_pp62      log    factor   0.4149469      0.1       10.0      k1_pp      1.0    0.0
k1_pp63      log    factor   0.2766264      0.1       10.0      k1_pp      1.0    0.0
k1_pp64      log    factor   0.3464907      0.1       10.0      k1_pp      1.0    0.0
k1_pp65      log    factor   0.7998297      0.1       10.0      k1_pp      1.0    0.0
k1_pp66      log    factor   0.9676916      0.1       10.0      k1_pp      1.0    0.0
k1_pp67      log    factor    1.653056      0.1       10.0      k1_pp      1.0    0.0
k1_pp68      log    factor    1.290014      0.1       10.0      k1_pp      1.0    0.0
k1_pp69      log    factor    1.941980      0.1       10.0      k1_pp      1.0    0.0
k1_pp70      log    factor    1.499330      0.1       10.0      k1_pp      1.0    0.0
k1_pp71      log    factor   0.6550127      0.1       10.0      k1_pp      1.0    0.0
k1_pp72      log    factor   0.6056784      0.1       10.0      k1_pp      1.0    0.0
k1_pp73      log    factor   0.4080087      0.1       10.0      k1_pp      1.0    0.0
k1_pp74      log    factor    1.312654      0.1       10.0      k1_pp      1.0    0.0
k1_pp75      log    factor   0.8551376      0.1       10.0      k1_pp      1.0    0.0
k1_pp76      log    factor   0.6330976      0.1       10.0      k1_pp      1.0    0.0
k1_pp77      log    factor   0.4414728      0.1       10.0      k1_pp      1.0    0.0
k1_pp78      log    factor   0.3820786      0.1       10.0      k1_pp      1.0    0.0
k1_pp79      log    factor   0.2743052      0.1       10.0      k1_pp      1.0    0.0
k1_pp80      log    factor   0.3820017      0.1       10.0      k1_pp      1.0    0.0
k1_pp81      log    factor   0.8998625      0.1       10.0      k1_pp      1.0    0.0
k1_pp82      log    factor    1.357309      0.1       10.0      k1_pp      1.0    0.0
k1_pp83      log    factor    1.538888      0.1       10.0      k1_pp      1.0    0.0
k1_pp84      log    factor    1.678346      0.1       10.0      k1_pp      1.0    0.0
k1_pp85      log    factor    1.862188      0.1       10.0      k1_pp      1.0    0.0
k1_pp86      log    factor    1.547365      0.1       10.0      k1_pp      1.0    0.0
k1_pp87      log    factor    1.273959      0.1       10.0      k1_pp      1.0    0.0
k1_pp88      log    factor   0.8159599      0.1       10.0      k1_pp      1.0    0.0
k1_pp89      log    factor   0.5109001      0.1       10.0      k1_pp      1.0    0.0
k1_pp90      log    factor   0.9029247      0.1       10.0      k1_pp      1.0    0.0
k1_pp91      log    factor   0.8516527      0.1       10.0      k1_pp      1.0    0.0
k1_pp92      log    factor   0.6456646      0.1       10.0      k1_pp      1.0    0.0
k1_pp93      log    factor   0.3455548      0.1       10.0      k1_pp      1.0    0.0
k1_pp94      log    factor   0.3613468      0.1       10.0      k1_pp      1.0    0.0
k1_pp95      log    factor   0.4185334      0.1       10.0      k1_pp      1.0    0.0
k1_pp96      log    factor   0.3696449      0.1       10.0      k1_pp      1.0    0.0
k1_pp97      log    factor    1.240998      0.1       10.0      k1_pp      1.0    0.0
k1_pp98      log    factor    1.000686      0.1       10.0      k1_pp      1.0    0.0
k1_pp99      log    factor    2.729115      0.1       10.0      k1_pp      1.0    0.0
k1_pp100     log    factor    1.745658      0.1       10.0      k1_pp      1.0    0.0
k1_pp101     log    factor    2.322346      0.1       10.0      k1_pp      1.0    0.0
k1_pp102     log    factor    1.936552      0.1       10.0      k1_pp      1.0    0.0
k1_pp103     log    factor   0.8693603      0.1       10.0      k1_pp      1.0    0.0
k1_pp104     log    factor   0.9513747      0.1       10.0      k1_pp      1.0    0.0
k1_pp105     log    factor   0.6655712      0.1       10.0      k1_pp      1.0    0.0
k1_pp106     log    factor   0.6408885      0.1       10.0      k1_pp      1.0    0.0
k1_pp107     log    factor   0.8920704      0.1       10.0      k1_pp      1.0    0.0
k1_pp108     log    factor   0.5099480      0.1       10.0      k1_pp      1.0    0.0
k1_pp109     log    factor   0.3644602      0.1       10.0      k1_pp      1.0    0.0
k1_pp110     log    factor   0.5172151      0.1       10.0      k1_pp      1.0    0.0
k1_pp111     log    factor   0.7096940      0.1       10.0      k1_pp      1.0    0.0
k1_pp112     log    factor   0.4819451      0.1       10.0      k1_pp      1.0    0.0
k1_pp113     log    factor    1.138113      0.1       10.0      k1_pp      1.0    0.0
k1_pp114     log    factor    1.762597      0.1       10.0      k1_pp      1.0    0.0
k1_pp115     log    factor    2.768207      0.1       10.0      k1_pp      1.0    0.0
k1_pp116     log    factor    2.612986      0.1       10.0      k1_pp      1.0    0.0
k1_pp117     log    factor    2.313195      0.1       10.0      k1_pp      1.0    0.0
k1_pp118     log    factor    1.169804      0.1       10.0      k1_pp      1.0    0.0
k1_pp119     log    factor    1.376531      0.1       10.0      k1_pp      1.0    0.0
k1_pp120     log    factor    1.043470      0.1       10.0      k1_pp      1.0    0.0
k1_pp121     log    factor   0.8223212      0.1       10.0      k1_pp      1.0    0.0
k1_pp122     log    factor   0.9412423      0.1       10.0      k1_pp      1.0    0.0
k1_pp123     log    factor    2.032404      0.1       10.0      k1_pp      1.0    0.0
k1_pp124     log    factor   0.5905977      0.1       10.0      k1_pp      1.0    0.0
k1_pp125     log    factor   0.3256329      0.1       10.0      k1_pp      1.0    0.0
k1_pp126     log    factor   0.4826902      0.1       10.0      k1_pp      1.0    0.0
k1_pp127     log    factor   0.9280340      0.1       10.0      k1_pp      1.0    0.0
k1_pp128     log    factor    1.126154      0.1       10.0      k1_pp      1.0    0.0
k1_pp129     log    factor   0.5668586      0.1       10.0      k1_pp      1.0    0.0
k1_pp130     log    factor    1.364578      0.1       10.0      k1_pp      1.0    0.0
k1_pp131     log    factor    2.892051      0.1       10.0      k1_pp      1.0    0.0
k1_pp132     log    factor    2.258172      0.1       10.0      k1_pp      1.0    0.0
k1_pp133     log    factor    1.874589      0.1       10.0      k1_pp      1.0    0.0
k1_pp134     log    factor    1.150394      0.1       10.0      k1_pp      1.0    0.0
k1_pp135     log    factor   0.9951534      0.1       10.0      k1_pp      1.0    0.0
k1_pp136     log    factor   0.8595676      0.1       10.0      k1_pp      1.0    0.0
k1_pp137     log    factor   0.9638939      0.1       10.0      k1_pp      1.0    0.0
k1_pp138     log    factor    1.217681      0.1       10.0      k1_pp      1.0    0.0
k1_pp139     log    factor   0.9751663      0.1       10.0      k1_pp      1.0    0.0
k1_pp140     log    factor   0.6585179      0.1       10.0      k1_pp      1.0    0.0
k1_pp141     log    factor   0.8629153      0.1       10.0      k1_pp      1.0    0.0
k1_pp142     log    factor   0.6152061      0.1       10.0      k1_pp      1.0    0.0
k1_pp143     log    factor   0.7790430      0.1       10.0      k1_pp      1.0    0.0
k1_pp144     log    factor    1.107942      0.1       10.0      k1_pp      1.0    0.0
k1_pp145     log    factor   0.3286544      0.1       10.0      k1_pp      1.0    0.0
k1_pp146     log    factor    1.211993      0.1       10.0      k1_pp      1.0    0.0
k1_pp147     log    factor    1.910084      0.1       10.0      k1_pp      1.0    0.0
k1_pp148     log    factor    2.125468      0.1       10.0      k1_pp      1.0    0.0
k1_pp149     log    factor    1.209718      0.1       10.0      k1_pp      1.0    0.0
k1_pp150     log    factor   0.8022164      0.1       10.0      k1_pp      1.0    0.0
k1_pp151     log    factor   0.7849270      0.1       10.0      k1_pp      1.0    0.0
k1_pp152     log    factor   0.7328539      0.1       10.0      k1_pp      1.0    0.0
k1_pp153     log    factor   0.8268521      0.1       10.0      k1_pp      1.0    0.0
k1_pp154     log    factor    1.304155      0.1       10.0      k1_pp      1.0    0.0
k1_pp155     log    factor   0.9926197      0.1       10.0      k1_pp      1.0    0.0
k1_pp156     log    factor   0.7331504      0.1       10.0      k1_pp      1.0    0.0
k1_pp157     log    factor   0.7519627      0.1       10.0      k1_pp      1.0    0.0
k1_pp158     log    factor   0.7108625      0.1       10.0      k1_pp      1.0    0.0
k1_pp159     log    factor   0.8744097      0.1       10.0      k1_pp      1.0    0.0
k1_pp160     log    factor   0.7801122      0.1       10.0      k1_pp      1.0    0.0
k1_pp161     log    factor   0.5008317      0.1       10.0      k1_pp      1.0    0.0
k1_pp162     log    factor   0.4154903      0.1       10.0      k1_pp      1.0    0.0
k1_pp163     log    factor    1.058232      0.1       10.0      k1_pp      1.0    0.0
k1_pp164     log    factor   0.9941474      0.1       10.0      k1_pp      1.0    0.0
k1_pp165     log    factor   0.7836170      0.1       10.0      k1_pp      1.0    0.0
k1_pp166     log    factor   0.7428433      0.1       10.0      k1_pp      1.0    0.0
k1_pp167     log    factor   0.8152919      0.1       10.0      k1_pp      1.0    0.0
k1_pp168     log    factor   0.7061231      0.1       10.0      k1_pp      1.0    0.0
k1_pp169     log    factor    2.098114      0.1       10.0      k1_pp      1.0    0.0
k1_pp170     log    factor    1.610974      0.1       10.0      k1_pp      1.0    0.0
k1_pp171     log    factor    1.266720      0.1       10.0      k1_pp      1.0    0.0
k1_pp172     log    factor   0.6621417      0.1       10.0      k1_pp      1.0    0.0
k1_pp173     log    factor    1.116492      0.1       10.0      k1_pp      1.0    0.0
k1_pp174     log    factor   0.9758936      0.1       10.0      k1_pp      1.0    0.0
k1_pp175     log    factor    1.129539      0.1       10.0      k1_pp      1.0    0.0
k1_pp176     log    factor    1.371367      0.1       10.0      k1_pp      1.0    0.0
k1_pp177     log    factor   0.3985212      0.1       10.0      k1_pp      1.0    0.0
k1_pp178     log    factor   0.4968014      0.1       10.0      k1_pp      1.0    0.0
k1_pp179     log    factor   0.8269742      0.1       10.0      k1_pp      1.0    0.0
k1_pp180     log    factor   0.9240587      0.1       10.0      k1_pp      1.0    0.0
k1_pp181     log    factor   0.4749702      0.1       10.0      k1_pp      1.0    0.0
k1_pp182     log    factor   0.7034229      0.1       10.0      k1_pp      1.0    0.0
k1_pp183     log    factor   0.9087806      0.1       10.0      k1_pp      1.0    0.0
k1_pp184     log    factor    1.649137      0.1       10.0      k1_pp      1.0    0.0
k1_pp185     log    factor    1.863956      0.1       10.0      k1_pp      1.0    0.0
k1_pp186     log    factor    2.150450      0.1       10.0      k1_pp      1.0    0.0
k1_pp187     log    factor    1.159182      0.1       10.0      k1_pp      1.0    0.0
k1_pp188     log    factor    1.202732      0.1       10.0      k1_pp      1.0    0.0
k1_pp189     log    factor    1.007246      0.1       10.0      k1_pp      1.0    0.0
k1_pp190     log    factor   0.8323818      0.1       10.0      k1_pp      1.0    0.0
k1_pp191     log    factor    1.001880      0.1       10.0      k1_pp      1.0    0.0
k1_pp192     log    factor   0.5992246      0.1       10.0      k1_pp      1.0    0.0
k1_pp193     log    factor   0.4975762      0.1       10.0      k1_pp      1.0    0.0
k1_pp194     log    factor   0.6204479      0.1       10.0      k1_pp      1.0    0.0
k1_pp195     log    factor   0.8019664      0.1       10.0      k1_pp      1.0    0.0
k1_pp196     log    factor   0.7104427      0.1       10.0      k1_pp      1.0    0.0
k1_pp197     log    factor   0.9662562      0.1       10.0      k1_pp      1.0    0.0
k1_pp198     log    factor   0.5468209      0.1       10.0      k1_pp      1.0    0.0
k1_pp199     log    factor   0.5765262      0.1       10.0      k1_pp      1.0    0.0
k1_pp200     log    factor   0.6403251      0.1       10.0      k1_pp      1.0    0.0
k1_pp201     log    factor   0.9603548      0.1       10.0      k1_pp      1.0    0.0
k1_pp202     log    factor    1.724076      0.1       10.0      k1_pp      1.0    0.0
k1_pp203     log    factor    1.834621      0.1       10.0      k1_pp      1.0    0.0
k1_pp204     log    factor    1.222419      0.1       10.0      k1_pp      1.0    0.0
k1_pp205     log    factor    1.655273      0.1       10.0      k1_pp      1.0    0.0
k1_pp206     log    factor    2.226343      0.1       10.0      k1_pp      1.0    0.0
k1_pp207     log    factor    1.336967      0.1       10.0      k1_pp      1.0    0.0
k1_pp208     log    factor   0.5911955      0.1       10.0      k1_pp      1.0    0.0
k1_pp209     log    factor   0.6546083      0.1       10.0      k1_pp      1.0    0.0
k1_pp210     log    factor   0.6331199      0.1       10.0      k1_pp      1.0    0.0
k1_pp211     log    factor   0.6616030      0.1       10.0      k1_pp      1.0    0.0
k1_pp212     log    factor   0.7450317      0.1       10.0      k1_pp      1.0    0.0
k1_pp213     log    factor    1.190321      0.1       10.0      k1_pp      1.0    0.0
k1_pp214     log    factor   0.6142964      0.1       10.0      k1_pp      1.0    0.0
k1_pp215     log    factor   0.4255450      0.1       10.0      k1_pp      1.0    0.0
k1_pp216     log    factor   0.6337398      0.1       10.0      k1_pp      1.0    0.0
k1_pp217     log    factor    1.032807      0.1       10.0      k1_pp      1.0    0.0
k1_pp218     log    factor    1.165352      0.1       10.0      k1_pp      1.0    0.0
k1_pp219     log    factor    1.515064      0.1       10.0      k1_pp      1.0    0.0
k1_pp220     log    factor    1.419781      0.1       10.0      k1_pp      1.0    0.0
k1_pp221     log    factor    1.759789      0.1       10.0      k1_pp      1.0    0.0
k1_pp222     log    factor    2.332057      0.1       10.0      k1_pp      1.0    0.0
k1_pp223     log    factor    1.871621      0.1       10.0      k1_pp      1.0    0.0
k1_pp224     log    factor    1.036052      0.1       10.0      k1_pp      1.0    0.0
k1_pp225     log    factor   0.7518814      0.1       10.0      k1_pp      1.0    0.0
k1_pp226     log    factor   0.7722682      0.1       10.0      k1_pp      1.0    0.0
k1_pp227     log    factor   0.7129452      0.1       10.0      k1_pp      1.0    0.0
k1_pp228     log    factor   0.7212536      0.1       10.0      k1_pp      1.0    0.0
k1_pp229     log    factor    1.134324      0.1       10.0      k1_pp      1.0    0.0
k1_pp230     log    factor   0.8113829      0.1       10.0      k1_pp      1.0    0.0
k1_pp231     log    factor   0.9965944      0.1       10.0      k1_pp      1.0    0.0
k1_pp232     log    factor   0.5818718      0.1       10.0      k1_pp      1.0    0.0
k1_pp233     log    factor   0.7431244      0.1       10.0      k1_pp      1.0    0.0
k1_pp234     log    factor    1.216295      0.1       10.0      k1_pp      1.0    0.0
k1_pp235     log    factor    1.133503      0.1       10.0      k1_pp      1.0    0.0
k1_pp236     log    factor    1.327633      0.1       10.0      k1_pp      1.0    0.0
k1_pp237     log    factor    1.253212      0.1       10.0      k1_pp      1.0    0.0
k1_pp238     log    factor    1.545752      0.1       10.0      k1_pp      1.0    0.0
k1_pp239     log    factor   0.9780664      0.1       10.0      k1_pp      1.0    0.0
k1_pp240     log    factor    1.640614      0.1       10.0      k1_pp      1.0    0.0
k1_pp241     log    factor   0.5888368      0.1       10.0      k1_pp      1.0    0.0
k1_pp242     log    factor   0.6843441      0.1       10.0      k1_pp      1.0    0.0
k1_pp243     log    factor   0.7165977      0.1       10.0      k1_pp      1.0    0.0
k1_pp244     log    factor   0.8704153      0.1       10.0      k1_pp      1.0    0.0
k1_pp245     log    factor    1.088548      0.1       10.0      k1_pp      1.0    0.0
k1_pp246     log    factor   0.7257035      0.1       10.0      k1_pp      1.0    0.0
k1_pp247     log    factor   0.5279487      0.1       10.0      k1_pp      1.0    0.0
k1_pp248     log    factor   0.7711177      0.1       10.0      k1_pp      1.0    0.0
k1_pp249     log    factor   0.4513716      0.1       10.0      k1_pp      1.0    0.0
k1_pp250     log    factor   0.6057147      0.1       10.0      k1_pp      1.0    0.0
k1_pp251     log    factor   0.9396456      0.1       10.0      k1_pp      1.0    0.0
k1_pp252     log    factor    1.582339      0.1       10.0      k1_pp      1.0    0.0
k1_pp253     log    factor    1.282328      0.1       10.0      k1_pp      1.0    0.0
k1_pp254     log    factor    1.697492      0.1       10.0      k1_pp      1.0    0.0
k1_pp255     log    factor    1.642555      0.1       10.0      k1_pp      1.0    0.0
k1_pp256     log    factor    1.607347      0.1       10.0      k1_pp      1.0    0.0
k1_pp257     log    factor   0.5246525      0.1       10.0      k1_pp      1.0    0.0
k1_pp258     log    factor   0.5129034      0.1       10.0      k1_pp      1.0    0.0
k1_pp259     log    factor   0.7489305      0.1       10.0      k1_pp      1.0    0.0
k1_pp260     log    factor   0.8856353      0.1       10.0      k1_pp      1.0    0.0
k1_pp261     log    factor   0.6476107      0.1       10.0      k1_pp      1.0    0.0
k1_pp262     log    factor   0.9347340      0.1       10.0      k1_pp      1.0    0.0
k1_pp263     log    factor   0.3405272      0.1       10.0      k1_pp      1.0    0.0
k1_pp264     log    factor   0.4011495      0.1       10.0      k1_pp      1.0    0.0
k1_pp265     log    factor   0.5020130      0.1       10.0      k1_pp      1.0    0.0
k1_pp266     log    factor   0.7529513      0.1       10.0      k1_pp      1.0    0.0
k1_pp267     log    factor   0.8998625      0.1       10.0      k1_pp      1.0    0.0
k1_pp268     log    factor    1.084513      0.1       10.0      k1_pp      1.0    0.0
k1_pp269     log    factor    2.208573      0.1       10.0      k1_pp      1.0    0.0
k1_pp270     log    factor    3.893109      0.1       10.0      k1_pp      1.0    0.0
k1_pp271     log    factor    1.713355      0.1       10.0      k1_pp      1.0    0.0
k1_pp272     log    factor    1.249504      0.1       10.0      k1_pp      1.0    0.0
k1_pp273     log    factor   0.6944832      0.1       10.0      k1_pp      1.0    0.0
k1_pp274     log    factor    1.352624      0.1       10.0      k1_pp      1.0    0.0
k1_pp275     log    factor   0.6969810      0.1       10.0      k1_pp      1.0    0.0
k1_pp276     log    factor   0.7111083      0.1       10.0      k1_pp      1.0    0.0
k1_pp277     log    factor   0.6907295      0.1       10.0      k1_pp      1.0    0.0
k1_pp278     log    factor   0.5002577      0.1       10.0      k1_pp      1.0    0.0
k1_pp279     log    factor   0.3804105      0.1       10.0      k1_pp      1.0    0.0
k1_pp280     log    factor   0.4759070      0.1       10.0      k1_pp      1.0    0.0
k1_pp281     log    factor   0.5325458      0.1       10.0      k1_pp      1.0    0.0
k1_pp282     log    factor   0.3160438      0.1       10.0      k1_pp      1.0    0.0
k1_pp283     log    factor   0.4346585      0.1       10.0      k1_pp      1.0    0.0
k1_pp284     log    factor   0.8541032      0.1       10.0      k1_pp      1.0    0.0
k1_pp285     log    factor    1.014794      0.1       10.0      k1_pp      1.0    0.0
k1_pp286     log    factor    2.219512      0.1       10.0      k1_pp      1.0    0.0
k1_pp287     log    factor    1.799519      0.1       10.0      k1_pp      1.0    0.0
k1_pp288     log    factor    1.355295      0.1       10.0      k1_pp      1.0    0.0
k1_pp289     log    factor    1.633225      0.1       10.0      k1_pp      1.0    0.0
k1_pp290     log    factor   0.7654846      0.1       10.0      k1_pp      1.0    0.0
k1_pp291     log    factor   0.8322318      0.1       10.0      k1_pp      1.0    0.0
k1_pp292     log    factor   0.5577304      0.1       10.0      k1_pp      1.0    0.0
k1_pp293     log    factor   0.7870510      0.1       10.0      k1_pp      1.0    0.0
k1_pp294     log    factor   0.6672940      0.1       10.0      k1_pp      1.0    0.0
k1_pp295     log    factor   0.7834992      0.1       10.0      k1_pp      1.0    0.0
k1_pp296     log    factor   0.7539067      0.1       10.0      k1_pp      1.0    0.0
k1_pp297     log    factor   0.7719212      0.1       10.0      k1_pp      1.0    0.0
k1_pp298     log    factor   0.2900568      0.1       10.0      k1_pp      1.0    0.0
k1_pp299     log    factor   0.6647031      0.1       10.0      k1_pp      1.0    0.0
k1_pp300     log    factor   0.8234594      0.1       10.0      k1_pp      1.0    0.0
k1_pp301     log    factor    1.406857      0.1       10.0      k1_pp      1.0    0.0
k1_pp302     log    factor    2.097918      0.1       10.0      k1_pp      1.0    0.0
k1_pp303     log    factor    2.288984      0.1       10.0      k1_pp      1.0    0.0
k1_pp304     log    factor    2.471711      0.1       10.0      k1_pp      1.0    0.0
k1_pp305     log    factor    1.196107      0.1       10.0      k1_pp      1.0    0.0
k1_pp306     log    factor   0.5937542      0.1       10.0      k1_pp      1.0    0.0