BEGIN OPTIONS
  CONTINUE
END OPTIONS

BEGIN TIMING
  TDIS6 model.tdis
END TIMING

BEGIN MODELS
  gwf6  model.nam  blockmodel
END MODELS

BEGIN EXCHANGES
END EXCHANGES

BEGIN SOLUTIONGROUP  1
  ims6  model.ims  blockmodel
END SOLUTIONGROUP