BEGIN OPTIONS
END OPTIONS

BEGIN GRIDDATA
  STRT
  CONSTANT 250.0
END GRIDDATA
