BEGIN OPTIONS
  TIME_UNITS  days
END OPTIONS

BEGIN DIMENSIONS
  NPER  1
END DIMENSIONS

BEGIN PERIODDATA
  1.0  1  1.00000000   PERLEN NSTP TSMULT
END PERIODDATA
