# File generated by Flopy version 3.3.3 on 04/14/2021 at 16:24:14.
BEGIN options
  DIGITS  9
END options

BEGIN continuous  FILEOUT  .\obs\drn_surface.csv
  surface-drain  DRN  surface-drain
END continuous  FILEOUT  .\obs\drn_surface.csv

