# File generated by Flopy version 3.3.3 on 02/11/2021 at 12:42:15.
BEGIN options
END options

BEGIN timing
  TDIS6  model.tdis
END timing

BEGIN models
  gwf6  model.nam  model
END models

BEGIN exchanges
END exchanges

BEGIN solutiongroup  1
  ims6  model.ims  model
END solutiongroup  1

