# File generated by Flopy version 3.3.3 on 02/11/2021 at 12:42:17.
BEGIN options
  BOUNDNAMES
  OBS6  FILEIN  model2.drn.obs
END options

BEGIN dimensions
  MAXBOUND  4307
END dimensions

BEGIN period  1
  1 1     113.80310059   10000.00000000  surface-drain
  1 2     112.27372742   10000.00000000  surface-drain
  1 3     110.71407318   10000.00000000  surface-drain
  1 4     109.16827393   10000.00000000  surface-drain
  1 5     107.62925720   10000.00000000  surface-drain
  1 6     106.08296204   10000.00000000  surface-drain
  1 7     104.55234528   10000.00000000  surface-drain
  1 8     103.04358673   10000.00000000  surface-drain
  1 9     101.48725891   10000.00000000  surface-drain
  1 10     100.02814484   10000.00000000  surface-drain
  1 11      98.61745453   10000.00000000  surface-drain
  1 12      97.24736023   10000.00000000  surface-drain
  1 13      96.50747681   10000.00000000  surface-drain
  1 14      95.88565826   10000.00000000  surface-drain
  1 15      95.33622742   10000.00000000  surface-drain
  1 16      94.81226349   10000.00000000  surface-drain
  1 17      94.32510376   10000.00000000  surface-drain
  1 18      93.87625122   10000.00000000  surface-drain
  1 19      93.43533325   10000.00000000  surface-drain
  1 20      93.00566101   10000.00000000  surface-drain
  1 21      92.52083588   10000.00000000  surface-drain
  1 22      92.08876038   10000.00000000  surface-drain
  1 23      91.65180969   10000.00000000  surface-drain
  1 24      91.20829010   10000.00000000  surface-drain
  1 25      90.77410126   10000.00000000  surface-drain
  1 26      90.33278656   10000.00000000  surface-drain
  1 27      89.89356995   10000.00000000  surface-drain
  1 28      89.46178436   10000.00000000  surface-drain
  1 29      89.03141785   10000.00000000  surface-drain
  1 30      88.61634827   10000.00000000  surface-drain
  1 31      88.20399475   10000.00000000  surface-drain
  1 32      87.80307770   10000.00000000  surface-drain
  1 33      87.39691162   10000.00000000  surface-drain
  1 34      86.99667358   10000.00000000  surface-drain
  1 35      86.59992981   10000.00000000  surface-drain
  1 36      86.19165802   10000.00000000  surface-drain
  1 37      85.81326294   10000.00000000  surface-drain
  1 38      85.57397461   10000.00000000  surface-drain
  1 39      85.36214447   10000.00000000  surface-drain
  1 40      85.50852203   10000.00000000  surface-drain
  1 41      85.30529785   10000.00000000  surface-drain
  1 42      85.20563507   10000.00000000  surface-drain
  1 43      85.10896301   10000.00000000  surface-drain
  1 44      85.06098175   10000.00000000  surface-drain
  1 45      85.02774048   10000.00000000  surface-drain
  1 46      85.04395294   10000.00000000  surface-drain
  1 47      85.01058960   10000.00000000  surface-drain
  1 48      85.07638550   10000.00000000  surface-drain
  1 49      85.02540588   10000.00000000  surface-drain
  1 50      84.99718475   10000.00000000  surface-drain
  1 51      85.01002502   10000.00000000  surface-drain
  1 52      84.99253082   10000.00000000  surface-drain
  1 53      85.19828033   10000.00000000  surface-drain
  1 54      85.11801147   10000.00000000  surface-drain
  1 55      85.17005157   10000.00000000  surface-drain
  1 56      85.08720398   10000.00000000  surface-drain
  1 57      85.07130432   10000.00000000  surface-drain
  1 58      85.03559875   10000.00000000  surface-drain
  1 59      85.05580902   10000.00000000  surface-drain
  1 60      85.01998901   10000.00000000  surface-drain
  1 61      84.99834442   10000.00000000  surface-drain
  1 63      84.99371338   10000.00000000  surface-drain
  1 65      85.03752899   10000.00000000  surface-drain
  1 66      85.00154114   10000.00000000  surface-drain
  1 67      85.02375031   10000.00000000  surface-drain
  1 68      84.99586487   10000.00000000  surface-drain
  1 70      84.99841309   10000.00000000  surface-drain
  1 72      84.99310303   10000.00000000  surface-drain
  1 83     112.98202515   10000.00000000  surface-drain
  1 84     111.48103333   10000.00000000  surface-drain
  1 85     109.95848083   10000.00000000  surface-drain
  1 86     108.46534729   10000.00000000  surface-drain
  1 87     106.99819946   10000.00000000  surface-drain
  1 88     105.53603363   10000.00000000  surface-drain
  1 89     104.06297302   10000.00000000  surface-drain
  1 90     102.61985016   10000.00000000  surface-drain
  1 91     101.15249634   10000.00000000  surface-drain
  1 92      99.76177216   10000.00000000  surface-drain
  1 93      98.41593933   10000.00000000  surface-drain
  1 94      97.10972595   10000.00000000  surface-drain
  1 95      96.41988373   10000.00000000  surface-drain
  1 96      95.79266357   10000.00000000  surface-drain
  1 97      95.21646881   10000.00000000  surface-drain
  1 98      94.70619202   10000.00000000  surface-drain
  1 99      94.23918915   10000.00000000  surface-drain
  1 100      93.78970337   10000.00000000  surface-drain
  1 101      93.35863495   10000.00000000  surface-drain
  1 102      92.93443298   10000.00000000  surface-drain
  1 103      92.46823883   10000.00000000  surface-drain
  1 104      92.02281952   10000.00000000  surface-drain
  1 105      91.57955170   10000.00000000  surface-drain
  1 106      91.13442230   10000.00000000  surface-drain
  1 107      90.68785858   10000.00000000  surface-drain
  1 108      90.24005127   10000.00000000  surface-drain
  1 109      89.79808044   10000.00000000  surface-drain
  1 110      89.35679626   10000.00000000  surface-drain
  1 111      88.92984772   10000.00000000  surface-drain
  1 112      88.50751495   10000.00000000  surface-drain
  1 113      88.08938599   10000.00000000  surface-drain
  1 114      87.67573547   10000.00000000  surface-drain
  1 115      87.26412201   10000.00000000  surface-drain
  1 116      86.86235046   10000.00000000  surface-drain
  1 117      86.46697998   10000.00000000  surface-drain
  1 118      86.07008362   10000.00000000  surface-drain
  1 119      85.67948151   10000.00000000  surface-drain
  1 120      85.44287872   10000.00000000  surface-drain
  1 121      85.25106049   10000.00000000  surface-drain
  1 122      85.38083649   10000.00000000  surface-drain
  1 123      85.20590973   10000.00000000  surface-drain
  1 124      85.14214325   10000.00000000  surface-drain
  1 125      85.05881500   10000.00000000  surface-drain
  1 126      85.11128235   10000.00000000  surface-drain
  1 127      85.05389404   10000.00000000  surface-drain
  1 128      85.01567078   10000.00000000  surface-drain
  1 129      85.04119110   10000.00000000  surface-drain
  1 130      85.00103760   10000.00000000  surface-drain
  1 131      85.00939941   10000.00000000  surface-drain
  1 133      84.99846649   10000.00000000  surface-drain
  1 136      84.99344635   10000.00000000  surface-drain
  1 141      85.08860779   10000.00000000  surface-drain
  1 142      85.02650452   10000.00000000  surface-drain
  1 143      84.99596405   10000.00000000  surface-drain
  1 144      85.01345062   10000.00000000  surface-drain
  1 145      84.99240112   10000.00000000  surface-drain
  1 146      85.06043243   10000.00000000  surface-drain
  1 147      84.99948883   10000.00000000  surface-drain
  1 149      84.99585724   10000.00000000  surface-drain
  1 159     112.18534851   10000.00000000  surface-drain
  1 160     110.74909210   10000.00000000  surface-drain
  1 161     109.30266571   10000.00000000  surface-drain
  1 162     107.87622070   10000.00000000  surface-drain
  1 163     106.47556305   10000.00000000  surface-drain
  1 164     105.08781433   10000.00000000  surface-drain
  1 165     103.70140076   10000.00000000  surface-drain
  1 166     102.31846619   10000.00000000  surface-drain
  1 167     100.92201233   10000.00000000  surface-drain
  1 168      99.57052612   10000.00000000  surface-drain
  1 169      98.26863098   10000.00000000  surface-drain
  1 170      97.01639557   10000.00000000  surface-drain
  1 171      96.35144043   10000.00000000  surface-drain
  1 172      95.74122620   10000.00000000  surface-drain
  1 173      95.16016388   10000.00000000  surface-drain
  1 174      94.63951111   10000.00000000  surface-drain
  1 175      94.17002106   10000.00000000  surface-drain
  1 176      93.72278595   10000.00000000  surface-drain
  1 177      93.28500366   10000.00000000  surface-drain
  1 178      92.84762573   10000.00000000  surface-drain
  1 179      92.39864349   10000.00000000  surface-drain
  1 180      91.94833374   10000.00000000  surface-drain
  1 181      91.50085449   10000.00000000  surface-drain
  1 182      91.05475616   10000.00000000  surface-drain
  1 183      90.60049438   10000.00000000  surface-drain
  1 184      90.14984894   10000.00000000  surface-drain
  1 185      89.70918274   10000.00000000  surface-drain
  1 186      89.26696777   10000.00000000  surface-drain
  1 187      88.83192444   10000.00000000  surface-drain
  1 188      88.40230560   10000.00000000  surface-drain
  1 189      87.97769165   10000.00000000  surface-drain
  1 190      87.55792999   10000.00000000  surface-drain
  1 191      87.14356995   10000.00000000  surface-drain
  1 192      86.73834229   10000.00000000  surface-drain
  1 193      86.35130310   10000.00000000  surface-drain
  1 194      85.96304321   10000.00000000  surface-drain
  1 195      85.58641052   10000.00000000  surface-drain
  1 196      85.33296967   10000.00000000  surface-drain
  1 197      85.20906830   10000.00000000  surface-drain
  1 198      85.11779785   10000.00000000  surface-drain
  1 199      85.18603516   10000.00000000  surface-drain
  1 200      85.09342194   10000.00000000  surface-drain
  1 201      85.29290771   10000.00000000  surface-drain
  1 202      85.16693115   10000.00000000  surface-drain
  1 203      85.07441711   10000.00000000  surface-drain
  1 204      85.14646912   10000.00000000  surface-drain
  1 205      85.05390930   10000.00000000  surface-drain
  1 206      85.06151581   10000.00000000  surface-drain
  1 207      85.01994324   10000.00000000  surface-drain
  1 208      85.04832458   10000.00000000  surface-drain
  1 209      85.00672150   10000.00000000  surface-drain
  1 210      84.99234772   10000.00000000  surface-drain
  1 214      85.03462982   10000.00000000  surface-drain
  1 215      84.99811554   10000.00000000  surface-drain
  1 216      85.02514648   10000.00000000  surface-drain
  1 217      84.99582672   10000.00000000  surface-drain
  1 223      85.01567841   10000.00000000  surface-drain
  1 225      85.00621033   10000.00000000  surface-drain
  1 228      84.99887848   10000.00000000  surface-drain
  1 230      84.99676514   10000.00000000  surface-drain
  1 238     111.42344666   10000.00000000  surface-drain
  1 239     110.12893677   10000.00000000  surface-drain
  1 240     108.83815002   10000.00000000  surface-drain
  1 241     107.47351837   10000.00000000  surface-drain
  1 242     106.09843445   10000.00000000  surface-drain
  1 243     104.75895691   10000.00000000  surface-drain
  1 244     103.44880676   10000.00000000  surface-drain
  1 245     102.13883209   10000.00000000  surface-drain
  1 246     100.77497101   10000.00000000  surface-drain
  1 247      99.44651794   10000.00000000  surface-drain
  1 248      98.17344666   10000.00000000  surface-drain
  1 249      96.98578644   10000.00000000  surface-drain
  1 250      96.33572388   10000.00000000  surface-drain
  1 251      95.72084045   10000.00000000  surface-drain
  1 252      95.13026428   10000.00000000  surface-drain
  1 253      94.59160614   10000.00000000  surface-drain
  1 254      94.12721252   10000.00000000  surface-drain
  1 255      93.67344666   10000.00000000  surface-drain
  1 256      93.22515106   10000.00000000  surface-drain
  1 257      92.77829742   10000.00000000  surface-drain
  1 258      92.32714081   10000.00000000  surface-drain
  1 259      91.87427521   10000.00000000  surface-drain
  1 260      91.42140961   10000.00000000  surface-drain
  1 261      90.96707153   10000.00000000  surface-drain
  1 262      90.51487732   10000.00000000  surface-drain
  1 263      90.06810760   10000.00000000  surface-drain
  1 264      89.62337494   10000.00000000  surface-drain
  1 265      89.18014526   10000.00000000  surface-drain
  1 266      88.74247742   10000.00000000  surface-drain
  1 267      88.30950165   10000.00000000  surface-drain
  1 268      87.88209534   10000.00000000  surface-drain
  1 269      87.46041870   10000.00000000  surface-drain
  1 270      87.04435730   10000.00000000  surface-drain
  1 271      86.63764954   10000.00000000  surface-drain
  1 272      86.25954437   10000.00000000  surface-drain
  1 273      85.88483429   10000.00000000  surface-drain
  1 274      85.51808167   10000.00000000  surface-drain
  1 275      85.26090240   10000.00000000  surface-drain
  1 276      85.13150024   10000.00000000  surface-drain
  1 277      85.06302643   10000.00000000  surface-drain
  1 278      85.02061462   10000.00000000  surface-drain
  1 279      85.05814362   10000.00000000  surface-drain
  1 280      85.01582336   10000.00000000  surface-drain
  1 281      85.12055969   10000.00000000  surface-drain
  1 282      85.05239868   10000.00000000  surface-drain
  1 283      85.01023865   10000.00000000  surface-drain
  1 284      85.04761505   10000.00000000  surface-drain
  1 285      85.00549316   10000.00000000  surface-drain
  1 286      85.23661041   10000.00000000  surface-drain
  1 287      85.11102295   10000.00000000  surface-drain
  1 288      85.04287720   10000.00000000  surface-drain
  1 289      85.00074768   10000.00000000  surface-drain
  1 290      85.03814697   10000.00000000  surface-drain
  1 291      84.99921417   10000.00000000  surface-drain
  1 292      85.10415649   10000.00000000  surface-drain
  1 293      85.03539276   10000.00000000  surface-drain
  1 294      84.99900818   10000.00000000  surface-drain
  1 295      85.03559875   10000.00000000  surface-drain
  1 296      84.99908447   10000.00000000  surface-drain
  1 297      84.99555969   10000.00000000  surface-drain
  1 311     110.68889618   10000.00000000  surface-drain
  1 312     109.58599854   10000.00000000  surface-drain
  1 313     108.45707703   10000.00000000  surface-drain
  1 314     107.15776062   10000.00000000  surface-drain
  1 315     105.78839111   10000.00000000  surface-drain
  1 316     104.47446442   10000.00000000  surface-drain
  1 317     103.20558929   10000.00000000  surface-drain
  1 318     101.93577576   10000.00000000  surface-drain
  1 319     100.63488770   10000.00000000  surface-drain
  1 320      99.34629059   10000.00000000  surface-drain
  1 321      98.10302734   10000.00000000  surface-drain
  1 322      97.01638031   10000.00000000  surface-drain
  1 323      96.36405182   10000.00000000  surface-drain
  1 324      95.75767517   10000.00000000  surface-drain
  1 325      95.17926025   10000.00000000  surface-drain
  1 326      94.63629913   10000.00000000  surface-drain
  1 327      94.14197540   10000.00000000  surface-drain
  1 328      93.66907501   10000.00000000  surface-drain
  1 329      93.20478058   10000.00000000  surface-drain
  1 330      92.74083710   10000.00000000  surface-drain
  1 331      92.27748871   10000.00000000  surface-drain
  1 332      91.81589508   10000.00000000  surface-drain
  1 333      91.35620880   10000.00000000  surface-drain
  1 334      90.89779663   10000.00000000  surface-drain
  1 335      90.44274139   10000.00000000  surface-drain
  1 336      89.99195099   10000.00000000  surface-drain
  1 337      89.54432678   10000.00000000  surface-drain
  1 338      89.10050964   10000.00000000  surface-drain
  1 339      88.66190338   10000.00000000  surface-drain
  1 340      88.22914886   10000.00000000  surface-drain
  1 341      87.80281067   10000.00000000  surface-drain
  1 342      87.38574219   10000.00000000  surface-drain
  1 343      86.97217560   10000.00000000  surface-drain
  1 344      86.57279968   10000.00000000  surface-drain
  1 345      86.19632721   10000.00000000  surface-drain
  1 346      85.83145142   10000.00000000  surface-drain
  1 347      85.47674561   10000.00000000  surface-drain
  1 348      85.23138428   10000.00000000  surface-drain
  1 349      85.10358429   10000.00000000  surface-drain
  1 350      85.03574371   10000.00000000  surface-drain
  1 351      84.99914551   10000.00000000  surface-drain
  1 352      85.03585052   10000.00000000  surface-drain
  1 353      84.99922180   10000.00000000  surface-drain
  1 354      85.10233307   10000.00000000  surface-drain
  1 355      85.03591156   10000.00000000  surface-drain
  1 356      84.99930573   10000.00000000  surface-drain
  1 357      85.03588867   10000.00000000  surface-drain
  1 358      84.99937439   10000.00000000  surface-drain
  1 359      85.22074127   10000.00000000  surface-drain
  1 360      85.10123444   10000.00000000  surface-drain
  1 361      85.03721619   10000.00000000  surface-drain
  1 362      84.99998474   10000.00000000  surface-drain
  1 363      85.04090881   10000.00000000  surface-drain
  1 364      85.00453186   10000.00000000  surface-drain
  1 365      85.10514832   10000.00000000  surface-drain
  1 366      85.04484558   10000.00000000  surface-drain
  1 367      85.00959015   10000.00000000  surface-drain
  1 368      85.04794312   10000.00000000  surface-drain
  1 369      85.01365662   10000.00000000  surface-drain
  1 381     109.93096924   10000.00000000  surface-drain
  1 382     108.95185852   10000.00000000  surface-drain
  1 383     107.87222290   10000.00000000  surface-drain
  1 384     106.64492798   10000.00000000  surface-drain
  1 385     105.34060669   10000.00000000  surface-drain
  1 386     104.10910034   10000.00000000  surface-drain
  1 387     102.90538025   10000.00000000  surface-drain
  1 388     101.70005798   10000.00000000  surface-drain
  1 389     100.48905182   10000.00000000  surface-drain
  1 390      99.29713440   10000.00000000  surface-drain
  1 391      98.17536926   10000.00000000  surface-drain
  1 392      97.18464661   10000.00000000  surface-drain
  1 393      96.43788910   10000.00000000  surface-drain
  1 394      95.82556152   10000.00000000  surface-drain
  1 395      95.27218628   10000.00000000  surface-drain
  1 396      94.73360443   10000.00000000  surface-drain
  1 397      94.21554565   10000.00000000  surface-drain
  1 398      93.71148682   10000.00000000  surface-drain
  1 399      93.22171021   10000.00000000  surface-drain
  1 400      92.73867035   10000.00000000  surface-drain
  1 401      92.25969696   10000.00000000  surface-drain
  1 402      91.78558350   10000.00000000  surface-drain
  1 403      91.31574249   10000.00000000  surface-drain
  1 404      90.84963989   10000.00000000  surface-drain
  1 405      90.38821411   10000.00000000  surface-drain
  1 406      89.93162537   10000.00000000  surface-drain
  1 407      89.47972107   10000.00000000  surface-drain
  1 408      89.03350067   10000.00000000  surface-drain
  1 409      88.59494019   10000.00000000  surface-drain
  1 410      88.16187286   10000.00000000  surface-drain
  1 411      87.73799133   10000.00000000  surface-drain
  1 412      87.32389832   10000.00000000  surface-drain
  1 413      86.92108154   10000.00000000  surface-drain
  1 414      86.53041077   10000.00000000  surface-drain
  1 415      86.15549469   10000.00000000  surface-drain
  1 416      85.78879547   10000.00000000  surface-drain
  1 417      85.43958282   10000.00000000  surface-drain
  1 418      85.21584320   10000.00000000  surface-drain
  1 419      85.10797119   10000.00000000  surface-drain
  1 420      85.05084229   10000.00000000  surface-drain
  1 421      85.01748657   10000.00000000  surface-drain
  1 422      85.05364227   10000.00000000  surface-drain
  1 423      85.02113342   10000.00000000  surface-drain
  1 424      85.11116028   10000.00000000  surface-drain
  1 425      85.04383087   10000.00000000  surface-drain
  1 426      85.22101593   10000.00000000  surface-drain
  1 427      85.11780548   10000.00000000  surface-drain
  1 428      85.05299377   10000.00000000  surface-drain
  1 429      85.12602997   10000.00000000  surface-drain
  1 430      85.06288147   10000.00000000  surface-drain
  1 431      84.99732971   10000.00000000  surface-drain
  1 433      84.99775696   10000.00000000  surface-drain
  1 436      84.99914551   10000.00000000  surface-drain
  1 438      85.00154114   10000.00000000  surface-drain
  1 442      85.00701141   10000.00000000  surface-drain
  1 444      85.01227570   10000.00000000  surface-drain
  1 445      84.99625397   10000.00000000  surface-drain
  1 447      85.01824951   10000.00000000  surface-drain
  1 448      84.99758148   10000.00000000  surface-drain
  1 449      85.02326965   10000.00000000  surface-drain
  1 450      84.99880219   10000.00000000  surface-drain
  1 454     109.14330292   10000.00000000  surface-drain
  1 455     108.21234894   10000.00000000  surface-drain
  1 456     107.16330719   10000.00000000  surface-drain
  1 457     106.00472260   10000.00000000  surface-drain
  1 458     104.77957153   10000.00000000  surface-drain
  1 459     103.66646576   10000.00000000  surface-drain
  1 460     102.56288147   10000.00000000  surface-drain
  1 461     101.45570374   10000.00000000  surface-drain
  1 462     100.35677338   10000.00000000  surface-drain
  1 463      99.29191589   10000.00000000  surface-drain
  1 464      98.29703522   10000.00000000  surface-drain
  1 465      97.42842102   10000.00000000  surface-drain
  1 466      96.69345856   10000.00000000  surface-drain
  1 467      96.03871155   10000.00000000  surface-drain
  1 468      95.43296051   10000.00000000  surface-drain
  1 469      94.85887146   10000.00000000  surface-drain
  1 470      94.30977631   10000.00000000  surface-drain
  1 471      93.77912903   10000.00000000  surface-drain
  1 472      93.26426697   10000.00000000  surface-drain
  1 473      92.75999451   10000.00000000  surface-drain
  1 474      92.26388550   10000.00000000  surface-drain
  1 475      91.77517700   10000.00000000  surface-drain
  1 476      91.29320526   10000.00000000  surface-drain
  1 477      90.81724548   10000.00000000  surface-drain
  1 478      90.35138702   10000.00000000  surface-drain
  1 479      89.88824463   10000.00000000  surface-drain
  1 480      89.43188477   10000.00000000  surface-drain
  1 481      88.98086548   10000.00000000  surface-drain
  1 482      88.53709412   10000.00000000  surface-drain
  1 483      88.10533905   10000.00000000  surface-drain
  1 484      87.68410492   10000.00000000  surface-drain
  1 485      87.27472687   10000.00000000  surface-drain
  1 486      86.88111877   10000.00000000  surface-drain
  1 487      86.50215149   10000.00000000  surface-drain
  1 488      86.14150238   10000.00000000  surface-drain
  1 489      85.78467560   10000.00000000  surface-drain
  1 490      85.45606995   10000.00000000  surface-drain
  1 491      85.23631287   10000.00000000  surface-drain
  1 492      85.13428497   10000.00000000  surface-drain
  1 493      85.07245636   10000.00000000  surface-drain
  1 494      85.14540863   10000.00000000  surface-drain
  1 495      85.08409882   10000.00000000  surface-drain
  1 496      85.25769043   10000.00000000  surface-drain
  1 497      85.13379669   10000.00000000  surface-drain
  1 498      85.02861786   10000.00000000  surface-drain
  1 499      85.00189972   10000.00000000  surface-drain
  1 500      85.03421021   10000.00000000  surface-drain
  1 501      85.00768280   10000.00000000  surface-drain
  1 503      85.04069519   10000.00000000  surface-drain
  1 504      85.01431274   10000.00000000  surface-drain
  1 505      85.04622650   10000.00000000  surface-drain
  1 506      85.01993561   10000.00000000  surface-drain
  1 507      84.99443054   10000.00000000  surface-drain
  1 509      84.99627686   10000.00000000  surface-drain
  1 515      85.04133606   10000.00000000  surface-drain
  1 516      84.99835968   10000.00000000  surface-drain
  1 518      85.00124359   10000.00000000  surface-drain
  1 520      85.05322266   10000.00000000  surface-drain
  1 521      85.00773621   10000.00000000  surface-drain
  1 523      85.01325226   10000.00000000  surface-drain
  1 524      84.99512482   10000.00000000  surface-drain
  1 533     108.32672882   10000.00000000  surface-drain
  1 534     107.43187714   10000.00000000  surface-drain
  1 535     106.43190765   10000.00000000  surface-drain
  1 536     105.37379456   10000.00000000  surface-drain
  1 537     104.26602936   10000.00000000  surface-drain
  1 538     103.23082733   10000.00000000  surface-drain
  1 539     102.20525360   10000.00000000  surface-drain
  1 540     101.19592285   10000.00000000  surface-drain
  1 541     100.21125793   10000.00000000  surface-drain
  1 542      99.26534271   10000.00000000  surface-drain
  1 543      98.39877319   10000.00000000  surface-drain
  1 544      97.63790894   10000.00000000  surface-drain
  1 545      96.95926666   10000.00000000  surface-drain
  1 546      96.26157379   10000.00000000  surface-drain
  1 547      95.60997772   10000.00000000  surface-drain
  1 548      94.99851990   10000.00000000  surface-drain
  1 549      94.41821289   10000.00000000  surface-drain
  1 550      93.86056519   10000.00000000  surface-drain
  1 551      93.32191467   10000.00000000  surface-drain
  1 552      92.79650879   10000.00000000  surface-drain
  1 553      92.28287506   10000.00000000  surface-drain
  1 554      91.77953339   10000.00000000  surface-drain
  1 555      91.28543854   10000.00000000  surface-drain
  1 556      90.80077362   10000.00000000  surface-drain
  1 557      90.32929230   10000.00000000  surface-drain
  1 558      89.85890961   10000.00000000  surface-drain
  1 559      89.39508057   10000.00000000  surface-drain
  1 560      88.93766785   10000.00000000  surface-drain
  1 561      88.49140930   10000.00000000  surface-drain
  1 562      88.05954742   10000.00000000  surface-drain
  1 563      87.64086151   10000.00000000  surface-drain
  1 564      87.23625946   10000.00000000  surface-drain
  1 565      86.84832764   10000.00000000  surface-drain
  1 566      86.48050690   10000.00000000  surface-drain
  1 567      86.13267517   10000.00000000  surface-drain
  1 568      85.80136108   10000.00000000  surface-drain
  1 569      85.49411011   10000.00000000  surface-drain
  1 570      85.27921295   10000.00000000  surface-drain
  1 571      85.15589905   10000.00000000  surface-drain
  1 572      85.29862213   10000.00000000  surface-drain
  1 573      85.17610168   10000.00000000  surface-drain
  1 574      85.06404877   10000.00000000  surface-drain
  1 575      85.01872253   10000.00000000  surface-drain
  1 576      84.99736023   10000.00000000  surface-drain
  1 577      85.02413940   10000.00000000  surface-drain
  1 578      84.99972534   10000.00000000  surface-drain
  1 579      85.07549286   10000.00000000  surface-drain
  1 580      85.03038788   10000.00000000  surface-drain
  1 581      85.00569153   10000.00000000  surface-drain
  1 582      85.03577423   10000.00000000  surface-drain
  1 583      85.01091003   10000.00000000  surface-drain
  1 588      84.99347687   10000.00000000  surface-drain
  1 591      85.08540344   10000.00000000  surface-drain
  1 592      85.03031158   10000.00000000  surface-drain
  1 593      85.09530640   10000.00000000  surface-drain
  1 594      85.04035187   10000.00000000  surface-drain
  1 595      84.99569702   10000.00000000  surface-drain
  1 597      84.99801636   10000.00000000  surface-drain
  1 600      85.00156403   10000.00000000  surface-drain
  1 602      85.00621033   10000.00000000  surface-drain
  1 609     107.49858856   10000.00000000  surface-drain
  1 610     106.62520599   10000.00000000  surface-drain
  1 611     105.69018555   10000.00000000  surface-drain
  1 612     104.73562622   10000.00000000  surface-drain
  1 613     103.76924133   10000.00000000  surface-drain
  1 614     102.80665588   10000.00000000  surface-drain
  1 615     101.84186554   10000.00000000  surface-drain
  1 616     100.91960144   10000.00000000  surface-drain
  1 617     100.04238129   10000.00000000  surface-drain
  1 618      99.21023560   10000.00000000  surface-drain
  1 619      98.44434357   10000.00000000  surface-drain
  1 620      97.74757385   10000.00000000  surface-drain
  1 621      97.10316467   10000.00000000  surface-drain
  1 622      96.42867279   10000.00000000  surface-drain
  1 623      95.76998901   10000.00000000  surface-drain
  1 624      95.13483429   10000.00000000  surface-drain
  1 625      94.52787018   10000.00000000  surface-drain
  1 626      93.94606781   10000.00000000  surface-drain
  1 627      93.38488007   10000.00000000  surface-drain
  1 628      92.84088135   10000.00000000  surface-drain
  1 629      92.31134796   10000.00000000  surface-drain
  1 630      91.79415131   10000.00000000  surface-drain
  1 631      91.28833008   10000.00000000  surface-drain
  1 632      90.79383087   10000.00000000  surface-drain
  1 633      90.31066132   10000.00000000  surface-drain
  1 634      89.83331299   10000.00000000  surface-drain
  1 635      89.36293793   10000.00000000  surface-drain
  1 636      88.89978027   10000.00000000  surface-drain
  1 637      88.45213318   10000.00000000  surface-drain
  1 638      88.01940918   10000.00000000  surface-drain
  1 639      87.60120392   10000.00000000  surface-drain
  1 640      87.19914246   10000.00000000  surface-drain
  1 641      86.81668091   10000.00000000  surface-drain
  1 642      86.45706940   10000.00000000  surface-drain
  1 643      86.12074280   10000.00000000  surface-drain
  1 644      85.80419922   10000.00000000  surface-drain