# File generated by Flopy version 3.3.3 on 02/11/2021 at 12:42:17.
BEGIN options
  auxiliary  iface
  BOUNDNAMES
  TS6  FILEIN  wel.ts
  OBS6  FILEIN  model.wel.obs
END options

BEGIN dimensions
  MAXBOUND  13
END dimensions

BEGIN period  1
    OPEN/CLOSE  'model.wel_stress_period_data_1.txt'
END period  1

BEGIN period  2
    OPEN/CLOSE  'model.wel_stress_period_data_2.txt'
END period  2

