# File generated by Flopy version 3.3.3 on 02/11/2021 at 12:42:15.
BEGIN options
END options

BEGIN packages
  DISV6  model.disv  disv
  NPF6  model.npf  npf
  IC6  model.ic  ic
  RCH6  model.rch  rch
  EVT6  model.evt  evt
  CHD6  model.chd  chd_0
  GHB6  model.ghb  ghb_0
  RIV6  model.riv  riv_0
  DRN6  model2.drn  drn2
  WEL6  model.wel  wel_0
  STO6  model.sto  sto
  OC6  model.oc  oc
  OBS6  model.obs  head_obs
END packages

