# File generated by Flopy version 3.3.3 on 02/11/2021 at 12:42:15.
BEGIN options
  TIME_UNITS  days
  START_DATE_TIME  1999-12-31
END options

BEGIN dimensions
  NPER  2
END dimensions

BEGIN perioddata
       0.00000000  1       1.00000000
    3653.00000000  120       1.00000000
END perioddata

