# File generated by Flopy version 3.3.3 on 02/11/2021 at 12:42:17.
BEGIN options
  BOUNDNAMES
  OBS6  FILEIN  model.chd.obs
END options

BEGIN dimensions
  MAXBOUND  351
END dimensions

BEGIN period  1
  1 4995      83.00000000  river-bc
  1 4981      83.00000000  river-bc
  1 4993      83.00000000  river-bc
  1 4988      83.00000000  river-bc
  1 4990      83.00000000  river-bc
  1 4918      83.00000000  river-bc
  1 4979      83.00000000  river-bc
  1 4921      83.00000000  river-bc
  1 4980      83.00000000  river-bc
  1 4923      83.00000000  river-bc
  1 4977      83.00000000  river-bc
  1 4975      83.00000000  river-bc
  1 4850      83.00000000  river-bc
  1 4916      83.00000000  river-bc
  1 4902      83.00000000  river-bc
  1 4909      83.00000000  river-bc
  1 4904      83.00000000  river-bc
  1 4907      83.00000000  river-bc
  1 4828      83.00000000  river-bc
  1 4848      83.00000000  river-bc
  1 4831      83.00000000  river-bc
  1 4845      83.00000000  river-bc
  1 4833      83.00000000  river-bc
  1 4843      83.00000000  river-bc
  1 4769      83.00000000  river-bc
  1 4836      83.00000000  river-bc
  1 4771      83.00000000  river-bc
  1 4834      83.00000000  river-bc
  1 4774      83.00000000  river-bc
  1 4776      83.00000000  river-bc
  1 4702      83.00000000  river-bc
  1 4762      83.00000000  river-bc
  1 4704      83.00000000  river-bc
  1 4760      83.00000000  river-bc
  1 4756      83.00000000  river-bc
  1 4757      83.00000000  river-bc
  1 4755      83.00000000  river-bc
  1 4683      83.00000000  river-bc
  1 4699      83.00000000  river-bc
  1 4685      83.00000000  river-bc
  1 4697      83.00000000  river-bc
  1 4688      83.00000000  river-bc
  1 4690      83.00000000  river-bc
  1 4606      83.00000000  river-bc
  1 4622      83.00000000  river-bc
  1 4608      83.00000000  river-bc
  1 4625      83.00000000  river-bc
  1 4615      83.00000000  river-bc
  1 4623      83.00000000  river-bc
  1 4617      83.00000000  river-bc
  1 4534      83.00000000  river-bc
  1 4603      83.00000000  river-bc
  1 4536      83.00000000  river-bc
  1 4604      83.00000000  river-bc
  1 4539      83.00000000  river-bc
  1 4602      83.00000000  river-bc
  1 4541      83.00000000  river-bc
  1 4474      83.00000000  river-bc
  1 4530      83.00000000  river-bc
  1 4476      83.00000000  river-bc
  1 4549      83.00000000  river-bc
  1 4475      83.00000000  river-bc
  1 4547      83.00000000  river-bc
  1 4542      83.00000000  river-bc
  1 4544      83.00000000  river-bc
  1 4454      83.00000000  river-bc
  1 4468      83.00000000  river-bc
  1 4457      83.00000000  river-bc
  1 4466      83.00000000  river-bc
  1 4459      83.00000000  river-bc
  1 4469      83.00000000  river-bc
  1 4381      83.00000000  river-bc
  1 4452      83.00000000  river-bc
  1 4380      83.00000000  river-bc
  1 4453      83.00000000  river-bc
  1 4390      83.00000000  river-bc
  1 4389      83.00000000  river-bc
  1 4392      83.00000000  river-bc
  1 4387      83.00000000  river-bc
  1 4395      83.00000000  river-bc
  1 4294      83.00000000  river-bc
  1 4379      83.00000000  river-bc
  1 4296      83.00000000  river-bc
  1 4373      83.00000000  river-bc
  1 4295      83.00000000  river-bc
  1 4376      83.00000000  river-bc
  1 4374      83.00000000  river-bc
  1 4301      83.00000000  river-bc
  1 4291      83.00000000  river-bc
  1 4303      83.00000000  river-bc
  1 4316      83.00000000  river-bc
  1 4300      83.00000000  river-bc
  1 4314      83.00000000  river-bc
  1 4306      83.00000000  river-bc
  1 4307      83.00000000  river-bc
  1 4308      83.00000000  river-bc
  1 4218      83.00000000  river-bc
  1 4228      83.00000000  river-bc
  1 4217      83.00000000  river-bc
  1 4229      83.00000000  river-bc
  1 4230      83.00000000  river-bc
  1 4227      83.00000000  river-bc
  1 4232      83.00000000  river-bc
  1 4224      83.00000000  river-bc
  1 4131      83.00000000  river-bc
  1 4216      83.00000000  river-bc
  1 4133      83.00000000  river-bc
  1 4210      83.00000000  river-bc
  1 4132      83.00000000  river-bc
  1 4213      83.00000000  river-bc
  1 4211      83.00000000  river-bc
  1 4138      83.00000000  river-bc
  1 4128      83.00000000  river-bc
  1 4140      83.00000000  river-bc
  1 4153      83.00000000  river-bc
  1 4137      83.00000000  river-bc
  1 4151      83.00000000  river-bc
  1 4143      83.00000000  river-bc
  1 4144      83.00000000  river-bc
  1 4145      83.00000000  river-bc
  1 4057      83.00000000  river-bc
  1 4068      83.00000000  river-bc
  1 4070      83.00000000  river-bc
  1 4066      83.00000000  river-bc
  1 4062      83.00000000  river-bc
  1 4067      83.00000000  river-bc
  1 4064      83.00000000  river-bc
  1 3985      83.00000000  river-bc
  1 4055      83.00000000  river-bc
  1 3991      83.00000000  river-bc
  1 4052      83.00000000  river-bc
  1 3993      83.00000000  river-bc
  1 4050      83.00000000  river-bc
  1 4051      83.00000000  river-bc
  1 3912      83.00000000  river-bc
  1 3988      83.00000000  river-bc
  1 3970      83.00000000  river-bc
  1 3986      83.00000000  river-bc
  1 3969      83.00000000  river-bc
  1 3976      83.00000000  river-bc
  1 3971      83.00000000  river-bc
  1 3974      83.00000000  river-bc
  1 3896      83.00000000  river-bc
  1 3910      83.00000000  river-bc
  1 3899      83.00000000  river-bc
  1 3907      83.00000000  river-bc
  1 3901      83.00000000  river-bc
  1 3905      83.00000000  river-bc
  1 3838      83.00000000  river-bc
  1 3894      83.00000000  river-bc
  1 3842      83.00000000  river-bc
  1 3913      83.00000000  river-bc
  1 3844      83.00000000  river-bc
  1 3849      83.00000000  river-bc
  1 3847      83.00000000  river-bc
  1 3777      83.00000000  river-bc
  1 3836      83.00000000  river-bc
  1 3779      83.00000000  river-bc
  1 3833      83.00000000  river-bc
  1 3831      83.00000000  river-bc
  1 3774      83.00000000  river-bc
  1 1616      83.00000000  river-bc
  1 1618      83.00000000  river-bc
  1 1958      83.00000000  river-bc
  1 1952      83.00000000  river-bc
  1 1956      83.00000000  river-bc
  1 1951      83.00000000  river-bc
  1 1953      83.00000000  river-bc
  1 1597      83.00000000  river-bc
  1 1610      83.00000000  river-bc
  1 1600      83.00000000  river-bc
  1 1613      83.00000000  river-bc
  1 1599      83.00000000  river-bc
  1 1611      83.00000000  river-bc
  1 1601      83.00000000  river-bc
  1 1420      83.00000000  river-bc
  1 1595      83.00000000  river-bc
  1 1430      83.00000000  river-bc
  1 1411      83.00000000  river-bc
  1 1432      83.00000000  river-bc
  1 1436      83.00000000  river-bc
  1 1431      83.00000000  river-bc
  1 1434      83.00000000  river-bc
  1 1239      83.00000000  river-bc
  1 1423      83.00000000  river-bc
  1 1241      83.00000000  river-bc
  1 1421      83.00000000  river-bc
  1 1233      83.00000000  river-bc
  1 1415      83.00000000  river-bc
  1 1414      83.00000000  river-bc
  1 1416      83.00000000  river-bc
  1 1217      83.00000000  river-bc
  1 1236      83.00000000  river-bc
  1 1223      83.00000000  river-bc
  1 1234      83.00000000  river-bc
  1 1220      83.00000000  river-bc
  1 1235      83.00000000  river-bc
  1 1222      83.00000000  river-bc
  1 1137      83.00000000  river-bc
  1 1218      83.00000000  river-bc
  1 1147      83.00000000  river-bc
  1 1216      83.00000000  river-bc
  1 1149      83.00000000  river-bc
  1 1128      83.00000000  river-bc
  1 1148      83.00000000  river-bc
  1 1153      83.00000000  river-bc
  1 1151      83.00000000  river-bc
  1 1067      83.00000000  river-bc
  1 1140      83.00000000  river-bc
  1 1069      83.00000000  river-bc
  1 1138      83.00000000  river-bc
  1 1061      83.00000000  river-bc
  1 1132      83.00000000  river-bc
  1 1131      83.00000000  river-bc
  1 1133      83.00000000  river-bc
  1 1045      83.00000000  river-bc
  1 1064      83.00000000  river-bc
  1 1051      83.00000000  river-bc
  1 1065      83.00000000  river-bc
  1 1053      83.00000000  river-bc
  1 1063      83.00000000  river-bc
  1 1050      83.00000000  river-bc
  1 974      83.00000000  river-bc
  1 1046      83.00000000  river-bc
  1 984      83.00000000  river-bc
  1 1044      83.00000000  river-bc
  1 983      83.00000000  river-bc
  1 965      83.00000000  river-bc
  1 985      83.00000000  river-bc
  1 963      83.00000000  river-bc
  1 988      83.00000000  river-bc
  1 902      83.00000000  river-bc
  1 972      83.00000000  river-bc
  1 904      83.00000000  river-bc
  1 975      83.00000000  river-bc
  1 903      83.00000000  river-bc
  1 969      83.00000000  river-bc
  1 967      83.00000000  river-bc
  1 886      83.00000000  river-bc
  1 899      83.00000000  river-bc
  1 885      83.00000000  river-bc
  1 897      83.00000000  river-bc
  1 887      83.00000000  river-bc
  1 905      83.00000000  river-bc
  1 890      83.00000000  river-bc
  1 892      83.00000000  river-bc
  1 815      83.00000000  river-bc
  1 831      83.00000000  river-bc
  1 812      83.00000000  river-bc
  1 829      83.00000000  river-bc
  1 814      83.00000000  river-bc
  1 826      83.00000000  river-bc
  1 824      83.00000000  river-bc
  1 742      83.00000000  river-bc
  1 809      83.00000000  river-bc
  1 744      83.00000000  river-bc
  1 807      83.00000000  river-bc
  1 747      83.00000000  river-bc
  1 749      83.00000000  river-bc
  1 674      83.00000000  river-bc
  1 738      83.00000000  river-bc
  1 676      83.00000000  river-bc
  1 736      83.00000000  river-bc
  1 728      83.00000000  river-bc
  1 733      83.00000000  river-bc
  1 731      83.00000000  river-bc
  1 655      83.00000000  river-bc
  1 671      83.00000000  river-bc
  1 657      83.00000000  river-bc
  1 669      83.00000000  river-bc
  1 660      83.00000000  river-bc
  1 662      83.00000000  river-bc
  1 583      83.00000000  river-bc
  1 654      83.00000000  river-bc
  1 588      83.00000000  river-bc
  1 602      83.00000000  river-bc
  1 595      83.00000000  river-bc
  1 600      83.00000000  river-bc
  1 597      83.00000000  river-bc
  1 518      83.00000000  river-bc
  1 581      83.00000000  river-bc
  1 521      83.00000000  river-bc
  1 578      83.00000000  river-bc
  1 523      83.00000000  river-bc
  1 576      83.00000000  river-bc
  1 524      83.00000000  river-bc
  1 450      83.00000000  river-bc
  1 516      83.00000000  river-bc
  1 499      83.00000000  river-bc
  1 509      83.00000000  river-bc
  1 501      83.00000000  river-bc
  1 507      83.00000000  river-bc
  1 504      83.00000000  river-bc
  1 433      83.00000000  river-bc
  1 448      83.00000000  river-bc
  1 436      83.00000000  river-bc
  1 445      83.00000000  river-bc
  1 438      83.00000000  river-bc
  1 444      83.00000000  river-bc
  1 442      83.00000000  river-bc
  1 358      83.00000000  river-bc
  1 431      83.00000000  river-bc
  1 362      83.00000000  river-bc
  1 421      83.00000000  river-bc
  1 364      83.00000000  river-bc
  1 369      83.00000000  river-bc
  1 367      83.00000000  river-bc
  1 291      83.00000000  river-bc
  1 356      83.00000000  river-bc
  1 294      83.00000000  river-bc
  1 353      83.00000000  river-bc
  1 296      83.00000000  river-bc
  1 351      83.00000000  river-bc
  1 297      83.00000000  river-bc
  1 289      83.00000000  river-bc
  1 278      83.00000000  river-bc
  1 285      83.00000000  river-bc
  1 280      83.00000000  river-bc
  1 283      83.00000000  river-bc
  1 215      83.00000000  river-bc
  1 230      83.00000000  river-bc
  1 217      83.00000000  river-bc
  1 228      83.00000000  river-bc
  1 216      83.00000000  river-bc
  1 225      83.00000000  river-bc
  1 223      83.00000000  river-bc
  1 143      83.00000000  river-bc
  1 209      83.00000000  river-bc
  1 145      83.00000000  river-bc
  1 207      83.00000000  river-bc
  1 144      83.00000000  river-bc
  1 210      83.00000000  river-bc
  1 147      83.00000000  river-bc
  1 149      83.00000000  river-bc
  1 66      83.00000000  river-bc
  1 130      83.00000000  river-bc
  1 68      83.00000000  river-bc
  1 128      83.00000000  river-bc
  1 67      83.00000000  river-bc
  1 136      83.00000000  river-bc
  1 131      83.00000000  river-bc
  1 133      83.00000000  river-bc
  1 50      83.00000000  river-bc
  1 60      83.00000000  river-bc
  1 52      83.00000000  river-bc
  1 63      83.00000000  river-bc
  1 51      83.00000000  river-bc
  1 61      83.00000000  river-bc
  1 70      83.00000000  river-bc
  1 47      83.00000000  river-bc
  1 72      83.00000000  river-bc
END period  1

