# File generated by Flopy version 3.3.3 on 02/11/2021 at 12:42:17.
BEGIN options
END options

BEGIN griddata
  iconvert
    OPEN/CLOSE  'model.sto_iconvert.txt'  FACTOR  1
  ss  LAYERED
    OPEN/CLOSE  'model.sto_ss_layer1.txt'  FACTOR  1.0
    OPEN/CLOSE  'model.sto_ss_layer2.txt'  FACTOR  1.0
    OPEN/CLOSE  'model.sto_ss_layer3.txt'  FACTOR  1.0
  sy  LAYERED
    OPEN/CLOSE  'model.sto_sy_layer1.txt'  FACTOR  1.0
    OPEN/CLOSE  'model.sto_sy_layer2.txt'  FACTOR  1.0
    OPEN/CLOSE  'model.sto_sy_layer3.txt'  FACTOR  1.0
END griddata

BEGIN period  1
  STEADY-STATE
END period  1

BEGIN period  2
  TRANSIENT
END period  2

