# File generated by Flopy version 3.3.3 on 02/11/2021 at 12:42:17.
BEGIN options
  DIGITS  9
END options

BEGIN continuous  FILEOUT  chd_flow.csv
  river  CHD  river-bc
END continuous  FILEOUT  chd_flow.csv

