# File generated by Flopy version 3.3.3 on 02/11/2021 at 12:42:17.
BEGIN options
  BOUNDNAMES
  OBS6  FILEIN  model.riv.obs
END options

BEGIN dimensions
  MAXBOUND  553
END dimensions

BEGIN period  1
    OPEN/CLOSE  'model.riv_stress_period_data_1.txt'
END period  1

