# File generated by Flopy version 3.3.3 on 02/11/2021 at 12:42:15.
BEGIN options
  PRINT_OPTION  summary
  COMPLEXITY  simple
END options

BEGIN nonlinear
  OUTER_HCLOSE  1.00000000E-05
  OUTER_MAXIMUM  100
  UNDER_RELAXATION  none
END nonlinear

BEGIN linear
  INNER_MAXIMUM  100
  INNER_HCLOSE  1.00000000E-06
  inner_rclose       0.10000000
  LINEAR_ACCELERATION  bicgstab
  RELAXATION_FACTOR       0.99000000
  SCALING_METHOD  none
  REORDERING_METHOD  none
END linear

