pcf
* control data
restart estimation
    2205      23       7       0       5
3  5    single  point
 10.0  -3.0  0.3  0.03  10  lamforgive uptestmin=20
 30.0  30.0  0.001
0.1
0  0.005  4  4  0.005  4
0  0  0 parsaveitn reisaveitn
* singular value decomposition
1
  5000  5e-7
0
* parameter groups
kx1    relative   0.015   0.0  switch  2  parabolic
kx2    relative   0.015   0.0  switch  2  parabolic
kx3    relative   0.015   0.0  switch  2  parabolic
rch    relative   0.015   0.0  switch  2  parabolic
strc    relative   0.015   0.0  switch  2  parabolic
ghb1       relative   0.015   0.0  switch  2  parabolic
ghb3       relative   0.015   0.0  switch  2  parabolic
* parameter data
drncpp01    log    factor   1.4474500E-02  1.00e-04    10000    strc    1    0
drncpp02    log    factor   1.3719200E-02  1.00e-04    10000    strc    1    0
drncpp03    log    factor   1.0290200E-02  1.00e-04    10000    strc    1    0
drncpp04    log    factor   1.0467700E-02  1.00e-04    10000    strc    1    0
drncpp05    log    factor   1.1386800E-02  1.00e-04    10000    strc    1    0
drncpp06    log    factor   1.3574600E-02  1.00e-04    10000    strc    1    0
drncpp07    log    factor   1.3308200E-02  1.00e-04    10000    strc    1    0
drncpp08    log    factor   1.1386400E-02  1.00e-04    10000    strc    1    0
drncpp09    log    factor   1.0014800E-02  1.00e-04    10000    strc    1    0
drncpp10    log    factor   7.2797000E-03  1.00e-04    10000    strc    1    0
drncpp11    log    factor   3.3471000E-03  1.00e-04    10000    strc    1    0
drncpp12    log    factor   4.7732000E-03  1.00e-04    10000    strc    1    0
drncpp13    log    factor   1.0585500E-02  1.00e-04    10000    strc    1    0
drncpp14    log    factor   9.9691000E-03  1.00e-04    10000    strc    1    0
drncpp15    log    factor   3.1894000E-03  1.00e-04    10000    strc    1    0
drncpp16    log    factor   3.0348000E-03  1.00e-04    10000    strc    1    0
drncpp17    log    factor   9.9427000E-03  1.00e-04    10000    strc    1    0
drncpp18    log    factor   7.7580000E-03  1.00e-04    10000    strc    1    0
drncpp19    log    factor   7.6082000E-03  1.00e-04    10000    strc    1    0
drncpp20    log    factor   5.3347000E-03  1.00e-04    10000    strc    1    0
drncpp21    log    factor   6.3352000E-03  1.00e-04    10000    strc    1    0
drncpp22    log    factor   4.4497000E-03  1.00e-04    10000    strc    1    0
drncpp23    log    factor   5.4642000E-03  1.00e-04    10000    strc    1    0
drncpp24    log    factor   5.9654000E-03  1.00e-04    10000    strc    1    0
drncpp25    log    factor   1.5135000E-02  1.00e-04    10000    strc    1    0
drncpp26    log    factor   2.7028400E-02  1.00e-04    10000    strc    1    0
drncpp27    log    factor   3.6019600E-02  1.00e-04    10000    strc    1    0
drncpp28    log    factor   3.6459600E-02  1.00e-04    10000    strc    1    0
drncpp29    log    factor   2.3440900E-02  1.00e-04    10000    strc    1    0
drncpp30    log    factor   1.4433000E-02  1.00e-04    10000    strc    1    0
drncpp31    log    factor   7.0275000E-03  1.00e-04    10000    strc    1    0
ghbc1pp01    log    factor   4.3813000E-03  1.00e-04    10000    ghb1    1    0
ghbc1pp02    log    factor   5.4578000E-03  1.00e-04    10000    ghb1    1    0
ghbc1pp03    log    factor   6.3975000E-03  1.00e-04    10000    ghb1    1    0
ghbc1pp04    log    factor   7.0956000E-03  1.00e-04    10000    ghb1    1    0
ghbc1pp05    log    factor   7.4813000E-03  1.00e-04    10000    ghb1    1    0
ghbc1pp06    log    factor   7.5362000E-03  1.00e-04    10000    ghb1    1    0
ghbc1pp07    log    factor   7.3080000E-03  1.00e-04    10000    ghb1    1    0
ghbc1pp08    log    factor   6.9110000E-03  1.00e-04    10000    ghb1    1    0
ghbc1pp09    log    factor   6.5080000E-03  1.00e-04    10000    ghb1    1    0
ghbc1pp10    log    factor   6.2690000E-03  1.00e-04    10000    ghb1    1    0
ghbc1pp11    log    factor   6.3058000E-03  1.00e-04    10000    ghb1    1    0
ghbc1pp12    log    factor   6.6101000E-03  1.00e-04    10000    ghb1    1    0
ghbc1pp13    log    factor   7.0212000E-03  1.00e-04    10000    ghb1    1    0
ghbc1pp14    log    factor   7.2477000E-03  1.00e-04    10000    ghb1    1    0
ghbc1pp15    log    factor   6.9951000E-03  1.00e-04    10000    ghb1    1    0
ghbc1pp16    log    factor   6.1757000E-03  1.00e-04    10000    ghb1    1    0
ghbc1pp17    log    factor   5.1281000E-03  1.00e-04    10000    ghb1    1    0
ghbc1pp18    log    factor   4.1911000E-03  1.00e-04    10000    ghb1    1    0
ghbc1pp19    log    factor   3.3286000E-03  1.00e-04    10000    ghb1    1    0
ghbc1pp20    log    factor   2.5102000E-03  1.00e-04    10000    ghb1    1    0
ghbc1pp21    log    factor   1.8168000E-03  1.00e-04    10000    ghb1    1    0
ghbc1pp22    log    factor   1.2903000E-03  1.00e-04    10000    ghb1    1    0
ghbc1pp23    log    factor   9.2660000E-04  1.00e-04    10000    ghb1    1    0
ghbc1pp24    log    factor   7.0700000E-04  1.00e-04    10000    ghb1    1    0
ghbc1pp25    log    factor   6.1380000E-04  1.00e-04    10000    ghb1    1    0
ghbc1pp26    log    factor   6.3080000E-04  1.00e-04    10000    ghb1    1    0
ghbc1pp27    log    factor   7.3360000E-04  1.00e-04    10000    ghb1    1    0
ghbc1pp28    log    factor   8.9840000E-04  1.00e-04    10000    ghb1    1    0
ghbc1pp29    log    factor   1.1118000E-03  1.00e-04    10000    ghb1    1    0
ghbc1pp30    log    factor   1.3595000E-03  1.00e-04    10000    ghb1    1    0
ghbc1pp31    log    factor   1.6130000E-03  1.00e-04    10000    ghb1    1    0
ghbc1pp32    log    factor   1.8392000E-03  1.00e-04    10000    ghb1    1    0
ghbc1pp33    log    factor   2.0089000E-03  1.00e-04    10000    ghb1    1    0
ghbc1pp34    log    factor   2.1014000E-03  1.00e-04    10000    ghb1    1    0
ghbc1pp35    log    factor   2.1069000E-03  1.00e-04    10000    ghb1    1    0
ghbc1pp36    log    factor   2.0274000E-03  1.00e-04    10000    ghb1    1    0
ghbc1pp37    log    factor   1.8745000E-03  1.00e-04    10000    ghb1    1    0
ghbc1pp38    log    factor   1.6657000E-03  1.00e-04    10000    ghb1    1    0
ghbc1pp39    log    factor   1.4201000E-03  1.00e-04    10000    ghb1    1    0
ghbc1pp40    log    factor   1.1567000E-03  1.00e-04    10000    ghb1    1    0
ghbc1pp41    log    factor   8.9430000E-04  1.00e-04    10000    ghb1    1    0
ghbc3pp01    log    factor   1.9878600E-02  1.00e-04    10000    ghb3    1    0
ghbc3pp02    log    factor   2.4855300E-02  1.00e-04    10000    ghb3    1    0
ghbc3pp03    log    factor   2.9275700E-02  1.00e-04    10000    ghb3    1    0
ghbc3pp04    log    factor   3.2675700E-02  1.00e-04    10000    ghb3    1    0
ghbc3pp05    log    factor   3.4736800E-02  1.00e-04    10000    ghb3    1    0
ghbc3pp06    log    factor   3.5373000E-02  1.00e-04    10000    ghb3    1    0
ghbc3pp07    log    factor   3.4824200E-02  1.00e-04    10000    ghb3    1    0
ghbc3pp08    log    factor   3.3704700E-02  1.00e-04    10000    ghb3    1    0
ghbc3pp09    log    factor   3.2914700E-02  1.00e-04    10000    ghb3    1    0
ghbc3pp10    log    factor   3.3374200E-02  1.00e-04    10000    ghb3    1    0
ghbc3pp11    log    factor   3.5640100E-02  1.00e-04    10000    ghb3    1    0
ghbc3pp12    log    factor   3.9576300E-02  1.00e-04    10000    ghb3    1    0
ghbc3pp13    log    factor   4.4219100E-02  1.00e-04    10000    ghb3    1    0
ghbc3pp14    log    factor   4.7853400E-02  1.00e-04    10000    ghb3    1    0
ghbc3pp15    log    factor   4.8649800E-02  1.00e-04    10000    ghb3    1    0
ghbc3pp16    log    factor   4.5817200E-02  1.00e-04    10000    ghb3    1    0
ghbc3pp17    log    factor   3.9936500E-02  1.00e-04    10000    ghb3    1    0
ghbc3pp18    log    factor   3.2396400E-02  1.00e-04    10000    ghb3    1    0
ghbc3pp19    log    factor   2.4695500E-02  1.00e-04    10000    ghb3    1    0
ghbc3pp20    log    factor   1.7917800E-02  1.00e-04    10000    ghb3    1    0
ghbc3pp21    log    factor   1.2592500E-02  1.00e-04    10000    ghb3    1    0
ghbc3pp22    log    factor   8.7838000E-03  1.00e-04    10000    ghb3    1    0
ghbc3pp23    log    factor   6.2909000E-03  1.00e-04    10000    ghb3    1    0
ghbc3pp24    log    factor   4.8202000E-03  1.00e-04    10000    ghb3    1    0
ghbc3pp25    log    factor   4.1000000E-03  1.00e-04    10000    ghb3    1    0
ghbc3pp26    log    factor   3.9396000E-03  1.00e-04    10000    ghb3    1    0
ghbc3pp27    log    factor   4.2426000E-03  1.00e-04    10000    ghb3    1    0
ghbc3pp28    log    factor   4.9449000E-03  1.00e-04    10000    ghb3    1    0
ghbc3pp29    log    factor   5.9831000E-03  1.00e-04    10000    ghb3    1    0
ghbc3pp30    log    factor   7.2966000E-03  1.00e-04    10000    ghb3    1    0
ghbc3pp31    log    factor   8.7457000E-03  1.00e-04    10000    ghb3    1    0
ghbc3pp32    log    factor   1.0146400E-02  1.00e-04    10000    ghb3    1    0
ghbc3pp33    log    factor   1.1318100E-02  1.00e-04    10000    ghb3    1    0
ghbc3pp34    log    factor   1.2111400E-02  1.00e-04    10000    ghb3    1    0
ghbc3pp35    log    factor   1.2429500E-02  1.00e-04    10000    ghb3    1    0
ghbc3pp36    log    factor   1.2237500E-02  1.00e-04    10000    ghb3    1    0
ghbc3pp37    log    factor   1.1559300E-02  1.00e-04    10000    ghb3    1    0
ghbc3pp38    log    factor   1.0468700E-02  1.00e-04    10000    ghb3    1    0
ghbc3pp39    log    factor   9.0709000E-03  1.00e-04    10000    ghb3    1    0
ghbc3pp40    log    factor   7.4877000E-03  1.00e-04    10000    ghb3    1    0
ghbc3pp41    log    factor   5.8510000E-03  1.00e-04    10000    ghb3    1    0
kx1pp001    log    factor   1.1322300E-02  1.00e-03    1000    kx1    1    0
kx1pp002    log    factor   1.6187600E-02  1.00e-03    1000    kx1    1    0
kx1pp003    log    factor   4.9226000E-03  1.00e-03    1000    kx1    1    0
kx1pp004    log    factor   1.9049300E-02  1.00e-03    1000    kx1    1    0
kx1pp005    log    factor   5.0776600E-02  1.00e-03    1000    kx1    1    0
kx1pp006    log    factor   8.6069100E-02  1.00e-03    1000    kx1    1    0
kx1pp007    log    factor   9.3236600E-02  1.00e-03    1000    kx1    1    0
kx1pp008    log    factor   5.9768600E-02  1.00e-03    1000    kx1    1    0
kx1pp009    log    factor   5.5334200E-02  1.00e-03    1000    kx1    1    0
kx1pp010    log    factor   4.5613400E-02  1.00e-03    1000    kx1    1    0
kx1pp011    log    factor   6.0646000E-02  1.00e-03    1000    kx1    1    0
kx1pp012    log    factor   7.8872700E-02  1.00e-03    1000    kx1    1    0
kx1pp013    log    factor   2.7756500E-02  1.00e-03    1000    kx1    1    0
kx1pp014    log    factor   2.7939700E-02  1.00e-03    1000    kx1    1    0
kx1pp015    log    factor   2.3080500E-02  1.00e-03    1000    kx1    1    0
kx1pp016    log    factor   1.7855900E-02  1.00e-03    1000    kx1    1    0
kx1pp017    log    factor   7.9900000E-03  1.00e-03    1000    kx1    1    0
kx1pp018    log    factor   1.0766900E-02  1.00e-03    1000    kx1    1    0
kx1pp019    log    factor   1.0657800E-02  1.00e-03    1000    kx1    1    0
kx1pp020    log    factor   5.4782000E-03  1.00e-03    1000    kx1    1    0
kx1pp021    log    factor   2.6248000E-02  1.00e-03    1000    kx1    1    0
kx1pp022    log    factor   2.3675400E-02  1.00e-03    1000    kx1    1    0
kx1pp023    log    factor   1.8584200E-02  1.00e-03    1000    kx1    1    0
kx1pp024    log    factor   1.7145200E-02  1.00e-03    1000    kx1    1    0
kx1pp025    log    factor   1.8385200E-02  1.00e-03    1000    kx1    1    0
kx1pp026    log    factor   1.2444800E-02  1.00e-03    1000    kx1    1    0
kx1pp027    log    factor   2.6673700E-02  1.00e-03    1000    kx1    1    0
kx1pp028    log    factor   0.2959614      1.00e-03    1000    kx1    1    0
kx1pp029    log    factor   0.1744020      1.00e-03    1000    kx1    1    0
kx1pp030    log    factor   1.3547200E-02  1.00e-03    1000    kx1    1    0
kx1pp031    log    factor   3.3529200E-02  1.00e-03    1000    kx1    1    0
kx1pp032    log    factor   6.8473900E-02  1.00e-03    1000    kx1    1    0
kx1pp033    log    factor   2.3322300E-02  1.00e-03    1000    kx1    1    0
kx1pp034    log    factor   6.7572300E-02  1.00e-03    1000    kx1    1    0
kx1pp035    log    factor   0.1558362      1.00e-03    1000    kx1    1    0
kx1pp036    log    factor   1.0140700E-02  1.00e-03    1000    kx1    1    0
kx1pp037    log    factor   1.6216400E-02  1.00e-03    1000    kx1    1    0
kx1pp038    log    factor   5.8185300E-02  1.00e-03    1000    kx1    1    0
kx1pp039    log    factor   6.7100400E-02  1.00e-03    1000    kx1    1    0
kx1pp040    log    factor   0.2657274      1.00e-03    1000    kx1    1    0
kx1pp041    log    factor   0.3026653      1.00e-03    1000    kx1    1    0
kx1pp042    log    factor   0.3903989      1.00e-03    1000    kx1    1    0
kx1pp043    log    factor   0.2087888      1.00e-03    1000    kx1    1    0
kx1pp044    log    factor   0.3787055      1.00e-03    1000    kx1    1    0
kx1pp045    log    factor   0.3632546      1.00e-03    1000    kx1    1    0
kx1pp046    log    factor   1.2679600E-02  1.00e-03    1000    kx1    1    0
kx1pp047    log    factor   0.5960758      1.00e-03    1000    kx1    1    0
kx1pp048    log    factor   0.4429537      1.00e-03    1000    kx1    1    0
kx1pp049    log    factor   2.5033900E-02  1.00e-03    1000    kx1    1    0
kx1pp050    log    factor   0.4980537      1.00e-03    1000    kx1    1    0
kx1pp051    log    factor   0.3836022      1.00e-03    1000    kx1    1    0
kx1pp052    log    factor   0.4220464      1.00e-03    1000    kx1    1    0
kx1pp053    log    factor   3.8491400E-02  1.00e-03    1000    kx1    1    0
kx1pp054    log    factor   6.0752400E-02  1.00e-03    1000    kx1    1    0
kx1pp055    log    factor   4.9475400E-02  1.00e-03    1000    kx1    1    0
kx1pp056    log    factor   5.1422200E-02  1.00e-03    1000    kx1    1    0
kx1pp057    log    factor   2.4439500E-02  1.00e-03    1000    kx1    1    0
kx1pp058    log    factor   1.9169200E-02  1.00e-03    1000    kx1    1    0
kx1pp059    log    factor   3.1105500E-02  1.00e-03    1000    kx1    1    0
kx1pp060    log    factor   2.4439100E-02  1.00e-03    1000    kx1    1    0
kx1pp061    log    factor   1.7627700E-02  1.00e-03    1000    kx1    1    0
kx1pp062    log    factor   1.2352300E-02  1.00e-03    1000    kx1    1    0
kx1pp063    log    factor   1.1017400E-02  1.00e-03    1000    kx1    1    0
kx1pp064    log    factor   5.8863000E-03  1.00e-03    1000    kx1    1    0
kx1pp065    log    factor   6.3331000E-03  1.00e-03    1000    kx1    1    0
kx1pp066    log    factor   4.4285000E-03  1.00e-03    1000    kx1    1    0
kx1pp067    log    factor   1.2010700E-02  1.00e-03    1000    kx1    1    0
kx1pp068    log    factor   2.1355200E-02  1.00e-03    1000    kx1    1    0
kx1pp069    log    factor   5.0668700E-02  1.00e-03    1000    kx1    1    0
kx1pp070    log    factor   9.4952100E-02  1.00e-03    1000    kx1    1    0
kx1pp071    log    factor   5.3400900E-02  1.00e-03    1000    kx1    1    0
kx1pp072    log    factor   8.6633300E-02  1.00e-03    1000    kx1    1    0
kx1pp073    log    factor   1.2782700E-02  1.00e-03    1000    kx1    1    0
kx1pp074    log    factor   1.1250700E-02  1.00e-03    1000    kx1    1    0
kx1pp075    log    factor   1.2869800E-02  1.00e-03    1000    kx1    1    0
kx1pp076    log    factor   1.2724900E-02  1.00e-03    1000    kx1    1    0
kx1pp077    log    factor   8.1379600E-02  1.00e-03    1000    kx1    1    0
kx1pp078    log    factor   5.8372600E-02  1.00e-03    1000    kx1    1    0
kx1pp079    log    factor   1.6543800E-02  1.00e-03    1000    kx1    1    0
kx1pp080    log    factor   5.9373000E-03  1.00e-03    1000    kx1    1    0
kx1pp081    log    factor   3.6052000E-03  1.00e-03    1000    kx1    1    0
kx1pp082    log    factor   3.5897200E-02  1.00e-03    1000    kx1    1    0
kx1pp083    log    factor   3.9045700E-02  1.00e-03    1000    kx1    1    0
kx1pp084    log    factor   5.8496900E-02  1.00e-03    1000    kx1    1    0
kx1pp085    log    factor   5.9228400E-02  1.00e-03    1000    kx1    1    0
kx1pp086    log    factor   1.3056100E-02  1.00e-03    1000    kx1    1    0
kx1pp087    log    factor   9.7795000E-03  1.00e-03    1000    kx1    1    0
kx1pp088    log    factor   3.7842700E-02  1.00e-03    1000    kx1    1    0
kx1pp089    log    factor   0.3414614      1.00e-03    1000    kx1    1    0
kx1pp090    log    factor   0.2559557      1.00e-03    1000    kx1    1    0
kx1pp091    log    factor   0.1463219      1.00e-03    1000    kx1    1    0
kx1pp092    log    factor   8.6154800E-02  1.00e-03    1000    kx1    1    0
kx1pp093    log    factor   1.6349900E-02  1.00e-03    1000    kx1    1    0
kx1pp094    log    factor   1.6159900E-02  1.00e-03    1000    kx1    1    0
kx1pp095    log    factor   2.4004200E-02  1.00e-03    1000    kx1    1    0
kx1pp096    log    factor   3.1072400E-02  1.00e-03    1000    kx1    1    0
kx1pp097    log    factor   9.3148500E-02  1.00e-03    1000    kx1    1    0
kx1pp098    log    factor   1.9493800E-02  1.00e-03    1000    kx1    1    0
kx1pp099    log    factor   7.2781000E-03  1.00e-03    1000    kx1    1    0
kx1pp100    log    factor   7.1270000E-03  1.00e-03    1000    kx1    1    0
kx1pp101    log    factor   1.2374900E-02  1.00e-03    1000    kx1    1    0
kx1pp102    log    factor   5.6567600E-02  1.00e-03    1000    kx1    1    0
kx1pp103    log    factor   1.1408000E-02  1.00e-03    1000    kx1    1    0
kx1pp104    log    factor   2.0739800E-02  1.00e-03    1000    kx1    1    0
kx1pp105    log    factor   4.8477400E-02  1.00e-03    1000    kx1    1    0
kx1pp106    log    factor   5.6850000E-03  1.00e-03    1000    kx1    1    0
kx1pp107    log    factor   2.0527800E-02  1.00e-03    1000    kx1    1    0
kx1pp108    log    factor   9.2979300E-02  1.00e-03    1000    kx1    1    0
kx1pp109    log    factor   0.3975875      1.00e-03    1000    kx1    1    0
kx1pp110    log    factor   0.1000092      1.00e-03    1000    kx1    1    0
kx1pp111    log    factor   0.1388099      1.00e-03    1000    kx1    1    0
kx1pp112    log    factor   0.1396264      1.00e-03    1000    kx1    1    0
kx1pp113    log    factor   0.1180264      1.00e-03    1000    kx1    1    0
kx1pp114    log    factor   6.0420200E-02  1.00e-03    1000    kx1    1    0
kx1pp115    log    factor   0.1804438      1.00e-03    1000    kx1    1    0
kx1pp116    log    factor   8.4986500E-02  1.00e-03    1000    kx1    1    0
kx1pp117    log    factor   6.9117700E-02  1.00e-03    1000    kx1    1    0
kx1pp118    log    factor   0.1724834      1.00e-03    1000    kx1    1    0
kx1pp119    log    factor   0.2574698      1.00e-03    1000    kx1    1    0
kx1pp120    log    factor   0.3556501      1.00e-03    1000    kx1    1    0
kx1pp121    log    factor   0.1680094      1.00e-03    1000    kx1    1    0
kx1pp122    log    factor   0.1675525      1.00e-03    1000    kx1    1    0
kx1pp123    log    factor   9.9757600E-02  1.00e-03    1000    kx1    1    0
kx1pp124    log    factor   4.8451300E-02  1.00e-03    1000    kx1    1    0
kx1pp125    log    factor   1.6483300E-02  1.00e-03    1000    kx1    1    0
kx1pp126    log    factor   4.8001500E-02  1.00e-03    1000    kx1    1    0
kx1pp127    log    factor   5.1469800E-02  1.00e-03    1000    kx1    1    0
kx1pp128    log    factor   0.2166623      1.00e-03    1000    kx1    1    0
kx1pp129    log    factor   0.1403728      1.00e-03    1000    kx1    1    0
kx1pp130    log    factor   5.9985300E-02  1.00e-03    1000    kx1    1    0
kx1pp131    log    factor   3.0622300E-02  1.00e-03    1000    kx1    1    0
kx1pp132    log    factor   7.6996800E-02  1.00e-03    1000    kx1    1    0
kx1pp133    log    factor   0.1139159      1.00e-03    1000    kx1    1    0
kx1pp134    log    factor   0.1536200      1.00e-03    1000    kx1    1    0
kx1pp135    log    factor   0.4959736      1.00e-03    1000    kx1    1    0
kx1pp136    log    factor   0.4561350      1.00e-03    1000    kx1    1    0
kx1pp137    log    factor   0.4756791      1.00e-03    1000    kx1    1    0
kx1pp138    log    factor   0.2857457      1.00e-03    1000    kx1    1    0
kx1pp139    log    factor   0.2886624      1.00e-03    1000    kx1    1    0
kx1pp140    log    factor   8.6306600E-02  1.00e-03    1000    kx1    1    0
kx1pp141    log    factor   2.1091700E-02  1.00e-03    1000    kx1    1    0
kx1pp142    log    factor   2.8374000E-03  1.00e-03    1000    kx1    1    0
kx1pp143    log    factor   2.3105400E-02  1.00e-03    1000    kx1    1    0
kx1pp144    log    factor   3.0774500E-02  1.00e-03    1000    kx1    1    0
kx1pp145    log    factor   4.3004400E-02  1.00e-03    1000    kx1    1    0
kx1pp146    log    factor   5.4088200E-02  1.00e-03    1000    kx1    1    0
kx1pp147    log    factor   7.1751400E-02  1.00e-03    1000    kx1    1    0
kx1pp148    log    factor   6.4706300E-02  1.00e-03    1000    kx1    1    0
kx1pp149    log    factor   9.0254200E-02  1.00e-03    1000    kx1    1    0
kx1pp150    log    factor   0.1007330      1.00e-03    1000    kx1    1    0
kx1pp151    log    factor   0.1002433      1.00e-03    1000    kx1    1    0
kx1pp152    log    factor   9.4517000E-02  1.00e-03    1000    kx1    1    0
kx1pp153    log    factor   0.1112710      1.00e-03    1000    kx1    1    0
kx1pp154    log    factor   8.2556300E-02  1.00e-03    1000    kx1    1    0
kx1pp155    log    factor   2.4562700E-02  1.00e-03    1000    kx1    1    0
kx1pp156    log    factor   4.1434700E-02  1.00e-03    1000    kx1    1    0
kx1pp157    log    factor   8.6454600E-02  1.00e-03    1000    kx1    1    0
kx1pp158    log    factor   4.7876300E-02  1.00e-03    1000    kx1    1    0
kx1pp159    log    factor   6.0562600E-02  1.00e-03    1000    kx1    1    0
kx1pp160    log    factor   3.1358300E-02  1.00e-03    1000    kx1    1    0
kx1pp161    log    factor   1.8054100E-02  1.00e-03    1000    kx1    1    0
kx1pp162    log    factor   1.1598000E-02  1.00e-03    1000    kx1    1    0
kx1pp163    log    factor   2.1414600E-02  1.00e-03    1000    kx1    1    0
kx1pp164    log    factor   8.3684000E-03  1.00e-03    1000    kx1    1    0
kx1pp165    log    factor   7.7960000E-03  1.00e-03    1000    kx1    1    0
kx1pp166    log    factor   6.3319100E-02  1.00e-03    1000    kx1    1    0
kx1pp167    log    factor   3.6550100E-02  1.00e-03    1000    kx1    1    0
kx1pp168    log    factor   2.2776800E-02  1.00e-03    1000    kx1    1    0
kx1pp169    log    factor   1.3662400E-02  1.00e-03    1000    kx1    1    0
kx1pp170    log    factor   3.6761400E-02  1.00e-03    1000    kx1    1    0
kx1pp171    log    factor   3.2864900E-02  1.00e-03    1000    kx1    1    0
kx1pp172    log    factor   0.1218529      1.00e-03    1000    kx1    1    0
kx1pp173    log    factor   6.6228300E-02  1.00e-03    1000    kx1    1    0
kx1pp174    log    factor   7.4178400E-02  1.00e-03    1000    kx1    1    0
kx1pp175    log    factor   0.1115652      1.00e-03    1000    kx1    1    0
kx1pp176    log    factor   0.1251627      1.00e-03    1000    kx1    1    0
kx1pp177    log    factor   4.9048100E-02  1.00e-03    1000    kx1    1    0
kx1pp178    log    factor   0.1515892      1.00e-03    1000    kx1    1    0
kx1pp179    log    factor   5.6579800E-02  1.00e-03    1000    kx1    1    0
kx1pp180    log    factor   3.7299700E-02  1.00e-03    1000    kx1    1    0
kx1pp181    log    factor   2.0232200E-02  1.00e-03    1000    kx1    1    0
kx1pp182    log    factor   1.0982000E-02  1.00e-03    1000    kx1    1    0
kx1pp183    log    factor   6.3472000E-03  1.00e-03    1000    kx1    1    0
kx1pp184    log    factor   5.6756000E-03  1.00e-03    1000    kx1    1    0
kx1pp185    log    factor   6.1477000E-03  1.00e-03    1000    kx1    1    0
kx1pp186    log    factor   6.4728000E-03  1.00e-03    1000    kx1    1    0
kx1pp187    log    factor   9.2527000E-03  1.00e-03    1000    kx1    1    0
kx1pp188    log    factor   1.3540700E-02  1.00e-03    1000    kx1    1    0
kx1pp189    log    factor   2.3215100E-02  1.00e-03    1000    kx1    1    0
kx1pp190    log    factor   3.3699800E-02  1.00e-03    1000    kx1    1    0
kx1pp191    log    factor   5.3776900E-02  1.00e-03    1000    kx1    1    0
kx1pp192    log    factor   4.5611800E-02  1.00e-03    1000    kx1    1    0
kx1pp193    log    factor   3.3842800E-02  1.00e-03    1000    kx1    1    0
kx1pp194    log    factor   2.6859400E-02  1.00e-03    1000    kx1    1    0
kx1pp195    log    factor   1.5040100E-02  1.00e-03    1000    kx1    1    0
kx1pp196    log    factor   9.0155000E-03  1.00e-03    1000    kx1    1    0
kx1pp197    log    factor   4.3778000E-03  1.00e-03    1000    kx1    1    0
kx1pp198    log    factor   7.1441700E-02  1.00e-03    1000    kx1    1    0
kx1pp199    log    factor   9.3943500E-02  1.00e-03    1000    kx1    1    0
kx1pp200    log    factor   8.0557400E-02  1.00e-03    1000    kx1    1    0
kx1pp201    log    factor   0.1585389      1.00e-03    1000    kx1    1    0
kx1pp202    log    factor   2.5657800E-02  1.00e-03    1000    kx1    1    0
kx1pp203    log    factor   2.1183800E-02  1.00e-03    1000    kx1    1    0
kx1pp204    log    factor   1.5356200E-02  1.00e-03    1000    kx1    1    0
kx1pp205    log    factor   1.7665100E-02  1.00e-03    1000    kx1    1    0
kx1pp206    log    factor   2.9239100E-02  1.00e-03    1000    kx1    1    0
kx1pp207    log    factor   3.4292900E-02  1.00e-03    1000    kx1    1    0
kx1pp208    log    factor   6.6992000E-02  1.00e-03    1000    kx1    1    0
kx1pp209    log    factor   3.8848000E-02  1.00e-03    1000    kx1    1    0
kx1pp210    log    factor   1.3047700E-02  1.00e-03    1000    kx1    1    0
kx1pp211    log    factor   1.7176900E-02  1.00e-03    1000    kx1    1    0
kx1pp212    log    factor   2.3043000E-03  1.00e-03    1000    kx1    1    0
kx1pp213    log    factor   7.7742000E-03  1.00e-03    1000    kx1    1    0
kx1pp214    log    factor   1.1406700E-02  1.00e-03    1000    kx1    1    0
kx1pp215    log    factor   1.9056900E-02  1.00e-03    1000    kx1    1    0
kx1pp216    log    factor   2.7462300E-02  1.00e-03    1000    kx1    1    0
kx1pp217    log    factor   2.4457000E-02  1.00e-03    1000    kx1    1    0
kx1pp218    log    factor   3.3101800E-02  1.00e-03    1000    kx1    1    0
kx1pp219    log    factor   4.1879000E-02  1.00e-03    1000    kx1    1    0
kx1pp220    log    factor   3.3258800E-02  1.00e-03    1000    kx1    1    0
kx1pp221    log    factor   4.3536300E-02  1.00e-03    1000    kx1    1    0
kx1pp222    log    factor   5.9288300E-02  1.00e-03    1000    kx1    1    0
kx1pp223    log    factor   7.5744300E-02  1.00e-03    1000    kx1    1    0
kx1pp224    log    factor   5.6699500E-02  1.00e-03    1000    kx1    1    0
kx1pp225    log    factor   5.6869100E-02  1.00e-03    1000    kx1    1    0
kx1pp226    log    factor   5.3875400E-02  1.00e-03    1000    kx1    1    0
kx1pp227    log    factor   3.2002800E-02  1.00e-03    1000    kx1    1    0
kx1pp228    log    factor   4.3419800E-02  1.00e-03    1000    kx1    1    0
kx1pp229    log    factor   2.9462300E-02  1.00e-03    1000    kx1    1    0
kx1pp230    log    factor   4.1842900E-02  1.00e-03    1000    kx1    1    0
kx1pp231    log    factor   3.4764800E-02  1.00e-03    1000    kx1    1    0
kx1pp232    log    factor   1.7034800E-02  1.00e-03    1000    kx1    1    0
kx1pp233    log    factor   3.2847000E-03  1.00e-03    1000    kx1    1    0
kx1pp234    log    factor   2.4402500E-02  1.00e-03    1000    kx1    1    0
kx1pp235    log    factor   2.8884900E-02  1.00e-03    1000    kx1    1    0
kx1pp236    log    factor   2.9531900E-02  1.00e-03    1000    kx1    1    0
kx1pp237    log    factor   2.6285200E-02  1.00e-03    1000    kx1    1    0
kx1pp238    log    factor   2.7280400E-02  1.00e-03    1000    kx1    1    0
kx1pp239    log    factor   3.0953200E-02  1.00e-03    1000    kx1    1    0
kx1pp240    log    factor   3.0861700E-02  1.00e-03    1000    kx1    1    0
kx1pp241    log    factor   2.6025700E-02  1.00e-03    1000    kx1    1    0
kx1pp242    log    factor   2.2351800E-02  1.00e-03    1000    kx1    1    0
kx1pp243    log    factor   2.4247300E-02  1.00e-03    1000    kx1    1    0
kx1pp244    log    factor   2.9742900E-02  1.00e-03    1000    kx1    1    0
kx1pp245    log    factor   3.3015700E-02  1.00e-03    1000    kx1    1    0
kx1pp246    log    factor   5.3699100E-02  1.00e-03    1000    kx1    1    0
kx1pp247    log    factor   4.0656100E-02  1.00e-03    1000    kx1    1    0
kx1pp248    log    factor   2.0432200E-02  1.00e-03    1000    kx1    1    0
kx1pp249    log    factor   1.3021800E-02  1.00e-03    1000    kx1    1    0
kx1pp250    log    factor   1.9243400E-02  1.00e-03    1000    kx1    1    0
kx1pp251    log    factor   1.5094300E-02  1.00e-03    1000    kx1    1    0
kx1pp252    log    factor   9.8475000E-03  1.00e-03    1000    kx1    1    0
kx1pp253    log    factor   1.0835600E-02  1.00e-03    1000    kx1    1    0
kx1pp254    log    factor   1.7950500E-02  1.00e-03    1000    kx1    1    0
kx1pp255    log    factor   1.4740700E-02  1.00e-03    1000    kx1    1    0
kx1pp256    log    factor   1.3648800E-02  1.00e-03    1000    kx1    1    0
kx1pp257    log    factor   1.2069400E-02  1.00e-03    1000    kx1    1    0
kx1pp258    log    factor   9.9994000E-03  1.00e-03    1000    kx1    1    0
kx1pp259    log    factor   8.4067000E-03  1.00e-03    1000    kx1    1    0
kx1pp260    log    factor   6.2265000E-03  1.00e-03    1000    kx1    1    0
kx1pp261    log    factor   6.8872000E-03  1.00e-03    1000    kx1    1    0
kx1pp262    log    factor   7.3683000E-03  1.00e-03    1000    kx1    1    0
kx1pp263    log    factor   5.9563000E-03  1.00e-03    1000    kx1    1    0