BEGIN OPTIONS
  SAVE_FLOWS
END OPTIONS

BEGIN DIMENSIONS
  MAXBOUND 50
END DIMENSIONS

BEGIN PERIOD 1
#l   r    c     head
 1   80   1     0.0
 1   80   2     0.0
 1   80   3     0.0
 1   80   4     0.0
 1   80   5     0.0
 1   80   6     0.0
 1   80   7     0.0
 1   80   8     0.0
 1   80   9     0.0
 1   80   10    0.0
 1   80   11    0.0
 1   80   12    0.0
 1   80   13    0.0
 1   80   14    0.0
 1   80   15    0.0
 1   80   16    0.0
 1   80   17    0.0
 1   80   18    0.0
 1   80   19    0.0
 1   80   20    0.0
 1   80   21    0.0
 1   80   22    0.0
 1   80   23    0.0
 1   80   24    0.0
 1   80   25    0.0
 1   80   26    0.0
 1   80   27    0.0
 1   80   28    0.0
 1   80   29    0.0
 1   80   30    0.0
 1   80   31    0.0
 1   80   32    0.0
 1   80   33    0.0
 1   80   34    0.0
 1   80   35    0.0
 1   80   36    0.0
 1   80   37    0.0
 1   80   38    0.0
 1   80   39    0.0
 1   80   40    0.0
 1   80   41    0.0
 1   80   42    0.0
 1   80   43    0.0
 1   80   44    0.0
 1   80   45    0.0
 1   80   46    0.0
 1   80   47    0.0
 1   80   48    0.0
 1   80   49    0.0
 1   80   50    0.0
END PERIOD 1