pcf
* control data
restart regularisation
    865    307      8    652     12
      5      4                    single  point
 10.0  -3.0  0.3  0.03  10 999  lamforgive  uptestmin=30
 10.0  10.0  0.001 absparmax(1)=1.0
 0.1
   0  0.005  4  4  0.005  4
 0  0  0  PARSAVEITN
* singular value decomposition
1
  5000  5e-7
0
* parameter groups
kx2bas        relative   0.015   0.0  switch  2  parabolic
kx2mul        relative   0.015   0.0  switch  2  parabolic
k13mul        relative   0.015   0.0  switch  2  parabolic
vanis         relative   0.015   0.0  switch  2  parabolic
rechmul       relative   0.015   0.0  switch  2  parabolic
rcmul         relative   0.015   0.0  switch  2  parabolic
rhadd         absolute   0.10    0.0  switch  2  parabolic
wmul          relative   0.015   0.0  switch  2  parabolic
* parameter data
pp1_kx1       log    factor        150.0         1.000000        1000.000            kx2bas   1.0   0.0
pp1_kx2       log    factor        150.0         1.000000        1000.000            kx2bas   1.0   0.0
pp1_kx3       log    factor        150.0         1.000000        1000.000            kx2bas   1.0   0.0
pp1_kx4       log    factor        150.0         1.000000        1000.000            kx2bas   1.0   0.0
pp1_kx5       log    factor        150.0         1.000000        1000.000            kx2bas   1.0   0.0
pp1_kx6       log    factor        150.0         1.000000        1000.000            kx2bas   1.0   0.0
pp1_kx7       log    factor        150.0         1.000000        1000.000            kx2bas   1.0   0.0
pp1_kx8       log    factor        150.0         1.000000        1000.000            kx2bas   1.0   0.0
pp1_kx9       log    factor        150.0         1.000000        1000.000            kx2bas   1.0   0.0
pp1_kx10      log    factor        150.0         1.000000        1000.000            kx2bas   1.0   0.0
pp1_kx11      log    factor        150.0         1.000000        1000.000            kx2bas   1.0   0.0
pp1_kx12      log    factor        150.0         1.000000        1000.000            kx2bas   1.0   0.0
pp1_kx13      log    factor        150.0         1.000000        1000.000            kx2bas   1.0   0.0
pp1_kx14      log    factor        150.0         1.000000        1000.000            kx2bas   1.0   0.0
pp1_kx15      log    factor         50.0         1.000000        1000.000            kx2bas   1.0   0.0
pp1_kx16      log    factor         50.0         1.000000        1000.000            kx2bas   1.0   0.0
pp1_kx17      log    factor        150.0         1.000000        1000.000            kx2bas   1.0   0.0
pp1_kx18      log    factor         50.0         1.000000        1000.000            kx2bas   1.0   0.0
pp1_kx19      log    factor         50.0         1.000000        1000.000            kx2bas   1.0   0.0
pp1_kx20      log    factor         50.0         1.000000        1000.000            kx2bas   1.0   0.0
pp1_kx21      log    factor         50.0         1.000000        1000.000            kx2bas   1.0   0.0
pp1_kx22      log    factor         75.0         1.000000        1000.000            kx2bas   1.0   0.0
pp1_kx23      log    factor         75.0         1.000000        1000.000            kx2bas   1.0   0.0
pp1_kx24      log    factor         75.0         1.000000        1000.000            kx2bas   1.0   0.0
pp1_kx25      log    factor         75.0         1.000000        1000.000            kx2bas   1.0   0.0
pp1_kx26      log    factor         75.0         1.000000        1000.000            kx2bas   1.0   0.0
pp1_kx27      log    factor         50.0         1.000000        1000.000            kx2bas   1.0   0.0
pp1_kx28      log    factor        150.0         1.000000        1000.000            kx2bas   1.0   0.0
pp1_kx29      log    factor         50.0         1.000000        1000.000            kx2bas   1.0   0.0
pp1_kx30      log    factor         50.0         1.000000        1000.000            kx2bas   1.0   0.0
pp1_kx31      log    factor         50.0         1.000000        1000.000            kx2bas   1.0   0.0
pp1_kx32      log    factor         68.0         1.000000        1000.000            kx2bas   1.0   0.0
pp2_mul1      log    factor      1.000000       0.5000000E-02    100.0000            kx2mul   1.0   0.0
pp2_mul2      log    factor      1.000000       0.5000000E-02    100.0000            kx2mul   1.0   0.0
pp2_mul3      log    factor      1.000000       0.5000000E-02    100.0000            kx2mul   1.0   0.0
pp2_mul4      log    factor      1.000000       0.5000000E-02    100.0000            kx2mul   1.0   0.0
pp2_mul5      log    factor      1.000000       0.5000000E-02    100.0000            kx2mul   1.0   0.0
pp2_mul6      log    factor      1.000000       0.5000000E-02    100.0000            kx2mul   1.0   0.0
pp2_mul7      log    factor      1.000000       0.5000000E-02    100.0000            kx2mul   1.0   0.0
pp2_mul8      log    factor      1.000000       0.5000000E-02    100.0000            kx2mul   1.0   0.0
pp2_mul9      log    factor      1.000000       0.5000000E-02    100.0000            kx2mul   1.0   0.0
pp2_mul10     log    factor      1.000000       0.5000000E-02    100.0000            kx2mul   1.0   0.0
pp2_mul11     log    factor      1.000000       0.5000000E-02    100.0000            kx2mul   1.0   0.0
pp2_mul12     log    factor      1.000000       0.5000000E-02    100.0000            kx2mul   1.0   0.0
pp2_mul13     log    factor      1.000000       0.5000000E-02    100.0000            kx2mul   1.0   0.0
pp2_mul14     log    factor      1.000000       0.5000000E-02    100.0000            kx2mul   1.0   0.0
pp2_mul15     log    factor      1.000000       0.5000000E-02    100.0000            kx2mul   1.0   0.0
pp2_mul16     log    factor      1.000000       0.5000000E-02    100.0000            kx2mul   1.0   0.0
pp2_mul17     log    factor      1.000000       0.5000000E-02    100.0000            kx2mul   1.0   0.0
pp2_mul18     log    factor      1.000000       0.5000000E-02    100.0000            kx2mul   1.0   0.0
pp2_mul19     log    factor      1.000000       0.5000000E-02    100.0000            kx2mul   1.0   0.0
pp2_mul20     log    factor      1.000000       0.5000000E-02    100.0000            kx2mul   1.0   0.0
pp2_mul21     log    factor      1.000000       0.5000000E-02    100.0000            kx2mul   1.0   0.0
pp2_mul22     log    factor      1.000000       0.5000000E-02    100.0000            kx2mul   1.0   0.0
pp2_mul23     log    factor      1.000000       0.5000000E-02    100.0000            kx2mul   1.0   0.0
pp2_mul24     log    factor      1.000000       0.5000000E-02    100.0000            kx2mul   1.0   0.0
pp2_mul25     log    factor      1.000000       0.5000000E-02    100.0000            kx2mul   1.0   0.0
pp2_mul26     log    factor      1.000000       0.5000000E-02    100.0000            kx2mul   1.0   0.0
pp2_mul27     log    factor      1.000000       0.5000000E-02    100.0000            kx2mul   1.0   0.0
pp2_mul28     log    factor      1.000000       0.5000000E-02    100.0000            kx2mul   1.0   0.0
pp2_mul29     log    factor      1.000000       0.5000000E-02    100.0000            kx2mul   1.0   0.0
pp2_mul30     log    factor      1.000000       0.5000000E-02    100.0000            kx2mul   1.0   0.0
pp2_mul31     log    factor      1.000000       0.5000000E-02    100.0000            kx2mul   1.0   0.0
pp2_mul32     log    factor      1.000000       0.5000000E-02    100.0000            kx2mul   1.0   0.0
pp2_mul33     log    factor      1.000000       0.5000000E-02    100.0000            kx2mul   1.0   0.0
pp2_mul34     log    factor      1.000000       0.5000000E-02    100.0000            kx2mul   1.0   0.0
pp2_mul35     log    factor      1.000000       0.5000000E-02    100.0000            kx2mul   1.0   0.0
pp2_mul36     log    factor      1.000000       0.5000000E-02    100.0000            kx2mul   1.0   0.0
pp2_mul37     log    factor      1.000000       0.5000000E-02    100.0000            kx2mul   1.0   0.0
pp2_mul38     log    factor      1.000000       0.5000000E-02    100.0000            kx2mul   1.0   0.0
pp2_mul39     log    factor      1.000000       0.5000000E-02    100.0000            kx2mul   1.0   0.0
pp2_mul40     log    factor      1.000000       0.5000000E-02    100.0000            kx2mul   1.0   0.0
pp2_mul41     log    factor      1.000000       0.5000000E-02    100.0000            kx2mul   1.0   0.0
pp2_mul42     log    factor      1.000000       0.5000000E-02    100.0000            kx2mul   1.0   0.0
pp2_mul43     log    factor      1.000000       0.5000000E-02    100.0000            kx2mul   1.0   0.0
pp2_mul44     log    factor      1.000000       0.5000000E-02    100.0000            kx2mul   1.0   0.0
pp2_mul45     log    factor      1.000000       0.5000000E-02    100.0000            kx2mul   1.0   0.0
pp2_mul46     log    factor      1.000000       0.5000000E-02    100.0000            kx2mul   1.0   0.0
pp2_mul47     log    factor      1.000000       0.5000000E-02    100.0000            kx2mul   1.0   0.0
pp2_mul48     log    factor      1.000000       0.5000000E-02    100.0000            kx2mul   1.0   0.0
pp2_mul49     log    factor      1.000000       0.5000000E-02    100.0000            kx2mul   1.0   0.0
pp2_mul50     log    factor      1.000000       0.5000000E-02    100.0000            kx2mul   1.0   0.0
pp2_mul51     log    factor      1.000000       0.5000000E-02    100.0000            kx2mul   1.0   0.0
pp2_mul52     log    factor      1.000000       0.5000000E-02    100.0000            kx2mul   1.0   0.0
pp2_mul53     log    factor      1.000000       0.5000000E-02    100.0000            kx2mul   1.0   0.0
pp2_mul54     log    factor      1.000000       0.5000000E-02    100.0000            kx2mul   1.0   0.0
pp2_mul55     log    factor      1.000000       0.5000000E-02    100.0000            kx2mul   1.0   0.0
pp2_mul56     log    factor      1.000000       0.5000000E-02    100.0000            kx2mul   1.0   0.0
pp2_mul57     log    factor      1.000000       0.5000000E-02    100.0000            kx2mul   1.0   0.0
pp2_mul58     log    factor      1.000000       0.5000000E-02    100.0000            kx2mul   1.0   0.0
pp2_mul59     log    factor      1.000000       0.5000000E-02    100.0000            kx2mul   1.0   0.0
pp2_mul60     log    factor      1.000000       0.5000000E-02    100.0000            kx2mul   1.0   0.0
pp2_mul61     log    factor      1.000000       0.5000000E-02    100.0000            kx2mul   1.0   0.0
pp2_mul62     log    factor      1.000000       0.5000000E-02    100.0000            kx2mul   1.0   0.0
pp2_mul63     log    factor      1.000000       0.5000000E-02    100.0000            kx2mul   1.0   0.0
pp2_mul64     log    factor      1.000000       0.5000000E-02    100.0000            kx2mul   1.0   0.0
pp2_mul65     log    factor      1.000000       0.5000000E-02    100.0000            kx2mul   1.0   0.0
pp2_mul66     log    factor      1.000000       0.5000000E-02    100.0000            kx2mul   1.0   0.0
pp2_mul67     log    factor      1.000000       0.5000000E-02    100.0000            kx2mul   1.0   0.0
pp2_mul68     log    factor      1.000000       0.5000000E-02    100.0000            kx2mul   1.0   0.0
pp2_mul69     log    factor      1.000000       0.5000000E-02    100.0000            kx2mul   1.0   0.0
pp2_mul70     log    factor      1.000000       0.5000000E-02    100.0000            kx2mul   1.0   0.0
pp2_mul71     log    factor      1.000000       0.5000000E-02    100.0000            kx2mul   1.0   0.0
pp2_mul72     log    factor      1.000000       0.5000000E-02    100.0000            kx2mul   1.0   0.0
pp2_mul73     log    factor      1.000000       0.5000000E-02    100.0000            kx2mul   1.0   0.0
pp2_mul74     log    factor      1.000000       0.5000000E-02    100.0000            kx2mul   1.0   0.0
pp2_mul75     log    factor      1.000000       0.5000000E-02    100.0000            kx2mul   1.0   0.0
pp2_mul76     log    factor      1.000000       0.5000000E-02    100.0000            kx2mul   1.0   0.0
pp2_mul77     log    factor      1.000000       0.5000000E-02    100.0000            kx2mul   1.0   0.0
pp2_mul78     log    factor      1.000000       0.5000000E-02    100.0000            kx2mul   1.0   0.0
pp2_mul79     log    factor      1.000000       0.5000000E-02    100.0000            kx2mul   1.0   0.0
pp2_mul80     log    factor      1.000000       0.5000000E-02    100.0000            kx2mul   1.0   0.0
pp2_mul81     log    factor      1.000000       0.5000000E-02    100.0000            kx2mul   1.0   0.0
pp2_mul82     log    factor      1.000000       0.5000000E-02    100.0000            kx2mul   1.0   0.0
pp2_mul83     log    factor      1.000000       0.5000000E-02    100.0000            kx2mul   1.0   0.0
pp2_mul84     log    factor      1.000000       0.5000000E-02    100.0000            kx2mul   1.0   0.0
pp2_mul85     log    factor      1.000000       0.5000000E-02    100.0000            kx2mul   1.0   0.0
pp2_mul86     log    factor      1.000000       0.5000000E-02    100.0000            kx2mul   1.0   0.0
pp2_mul87     log    factor      1.000000       0.5000000E-02    100.0000            kx2mul   1.0   0.0
pp2_mul88     log    factor      1.000000       0.5000000E-02    100.0000            kx2mul   1.0   0.0
pp2_mul89     log    factor      1.000000       0.5000000E-02    100.0000            kx2mul   1.0   0.0
pp2_mul90     log    factor      1.000000       0.5000000E-02    100.0000            kx2mul   1.0   0.0
pp2_mul91     log    factor      1.000000       0.5000000E-02    100.0000            kx2mul   1.0   0.0
pp2_mul92     log    factor      1.000000       0.5000000E-02    100.0000            kx2mul   1.0   0.0
pp2_mul93     log    factor      1.000000       0.5000000E-02    100.0000            kx2mul   1.0   0.0
pp2_mul94     log    factor      1.000000       0.5000000E-02    100.0000            kx2mul   1.0   0.0
pp2_mul95     log    factor      1.000000       0.5000000E-02    100.0000            kx2mul   1.0   0.0
pp2_mul96     log    factor      1.000000       0.5000000E-02    100.0000            kx2mul   1.0   0.0
pp2_mul97     log    factor      1.000000       0.5000000E-02    100.0000            kx2mul   1.0   0.0
pp2_mul98     log    factor      1.000000       0.5000000E-02    100.0000            kx2mul   1.0   0.0
pp2_mul99     log    factor      1.000000       0.5000000E-02    100.0000            kx2mul   1.0   0.0
pp2_mul100    log    factor      1.000000       0.5000000E-02    100.0000            kx2mul   1.0   0.0
pp2_mul101    log    factor      1.000000       0.5000000E-02    100.0000            kx2mul   1.0   0.0
pp2_mul102    log    factor      1.000000       0.5000000E-02    100.0000            kx2mul   1.0   0.0
pp2_mul103    log    factor      1.000000       0.5000000E-02    100.0000            kx2mul   1.0   0.0
pp2_mul104    log    factor      1.000000       0.5000000E-02    100.0000            kx2mul   1.0   0.0
pp2_mul105    log    factor      1.000000       0.5000000E-02    100.0000            kx2mul   1.0   0.0
pp2_mul106    log    factor      1.000000       0.5000000E-02    100.0000            kx2mul   1.0   0.0
pp2_mul107    log    factor      1.000000       0.5000000E-02    100.0000            kx2mul   1.0   0.0
pp2_mul108    log    factor      1.000000       0.5000000E-02    100.0000            kx2mul   1.0   0.0
pp2_mul109    log    factor      1.000000       0.5000000E-02    100.0000            kx2mul   1.0   0.0
pp2_mul110    log    factor      1.000000       0.5000000E-02    100.0000            kx2mul   1.0   0.0
pp2_mul111    log    factor      1.000000       0.5000000E-02    100.0000            kx2mul   1.0   0.0
pp2_mul112    log    factor      1.000000       0.5000000E-02    100.0000            kx2mul   1.0   0.0
pp2_mul113    log    factor      1.000000       0.5000000E-02    100.0000            kx2mul   1.0   0.0
pp2_mul114    log    factor      1.000000       0.5000000E-02    100.0000            kx2mul   1.0   0.0
pp2_mul115    log    factor      1.000000       0.5000000E-02    100.0000            kx2mul   1.0   0.0
pp2_mul116    log    factor      1.000000       0.5000000E-02    100.0000            kx2mul   1.0   0.0
pp2_mul117    log    factor      1.000000       0.5000000E-02    100.0000            kx2mul   1.0   0.0
pp2_mul118    log    factor      1.000000       0.5000000E-02    100.0000            kx2mul   1.0   0.0
pp2_mul119    log    factor      1.000000       0.5000000E-02    100.0000            kx2mul   1.0   0.0
pp2_mul120    log    factor      1.000000       0.5000000E-02    100.0000            kx2mul   1.0   0.0
pp2_mul121    log    factor      1.000000       0.5000000E-02    100.0000            kx2mul   1.0   0.0
pp2_mul122    log    factor      1.000000       0.5000000E-02    100.0000            kx2mul   1.0   0.0
pp2_mul123    log    factor      1.000000       0.5000000E-02    100.0000            kx2mul   1.0   0.0
pp2_mul124    log    factor      1.000000       0.5000000E-02    100.0000            kx2mul   1.0   0.0
pp2_mul125    log    factor      1.000000       0.5000000E-02    100.0000            kx2mul   1.0   0.0
pp2_mul126    log    factor      1.000000       0.5000000E-02    100.0000            kx2mul   1.0   0.0
pp2_mul127    log    factor      1.000000       0.5000000E-02    100.0000            kx2mul   1.0   0.0
pp2_mul128    log    factor      1.000000       0.5000000E-02    100.0000            kx2mul   1.0   0.0
pp2_mul129    log    factor      1.000000       0.5000000E-02    100.0000            kx2mul   1.0   0.0
pp2_mul130    log    factor      1.000000       0.5000000E-02    100.0000            kx2mul   1.0   0.0
pp2_mul131    log    factor      1.000000       0.5000000E-02    100.0000            kx2mul   1.0   0.0
pp2_mul132    log    factor      1.000000       0.5000000E-02    100.0000            kx2mul   1.0   0.0
pp2_mul133    log    factor      1.000000       0.5000000E-02    100.0000            kx2mul   1.0   0.0
pp2_mul134    log    factor      1.000000       0.5000000E-02    100.0000            kx2mul   1.0   0.0
pp2_mul135    log    factor      1.000000       0.5000000E-02    100.0000            kx2mul   1.0   0.0
pp2_mul136    log    factor      1.000000       0.5000000E-02    100.0000            kx2mul   1.0   0.0
pp2_mul137    log    factor      1.000000       0.5000000E-02    100.0000            kx2mul   1.0   0.0
pp2_mul138    log    factor      1.000000       0.5000000E-02    100.0000            kx2mul   1.0   0.0
pp2_mul139    log    factor      1.000000       0.5000000E-02    100.0000            kx2mul   1.0   0.0
pp2_mul140    log    factor      1.000000       0.5000000E-02    100.0000            kx2mul   1.0   0.0
pp2_mul141    log    factor      1.000000       0.5000000E-02    100.0000            kx2mul   1.0   0.0
pp2_mul142    log    factor      1.000000       0.5000000E-02    100.0000            kx2mul   1.0   0.0
pp2_mul143    log    factor      1.000000       0.5000000E-02    100.0000            kx2mul   1.0   0.0
pp2_mul144    log    factor      1.000000       0.5000000E-02    100.0000            kx2mul   1.0   0.0
pp2_mul145    log    factor      1.000000       0.5000000E-02    100.0000            kx2mul   1.0   0.0
pp2_mul146    log    factor      1.000000       0.5000000E-02    100.0000            kx2mul   1.0   0.0
pp2_mul147    log    factor      1.000000       0.5000000E-02    100.0000            kx2mul   1.0   0.0
pp2_mul148    log    factor      1.000000       0.5000000E-02    100.0000            kx2mul   1.0   0.0
pp2_mul149    log    factor      1.000000       0.5000000E-02    100.0000            kx2mul   1.0   0.0
pp2_mul150    log    factor      1.000000       0.5000000E-02    100.0000            kx2mul   1.0   0.0
pp2_mul151    log    factor      1.000000       0.5000000E-02    100.0000            kx2mul   1.0   0.0
pp2_mul152    log    factor      1.000000       0.5000000E-02    100.0000            kx2mul   1.0   0.0
pp2_mul153    log    factor      1.000000       0.5000000E-02    100.0000            kx2mul   1.0   0.0
pp2_mul154    log    factor      1.000000       0.5000000E-02    100.0000            kx2mul   1.0   0.0
pp2_mul155    log    factor      1.000000       0.5000000E-02    100.0000            kx2mul   1.0   0.0
pp2_mul156    log    factor      1.000000       0.5000000E-02    100.0000            kx2mul   1.0   0.0
pp2_mul157    log    factor      1.000000       0.5000000E-02    100.0000            kx2mul   1.0   0.0
pp2_mul158    log    factor      1.000000       0.5000000E-02    100.0000            kx2mul   1.0   0.0
pp2_mul159    log    factor      1.000000       0.5000000E-02    100.0000            kx2mul   1.0   0.0
pp2_mul160    log    factor      1.000000       0.5000000E-02    100.0000            kx2mul   1.0   0.0
pp2_mul161    log    factor      1.000000       0.5000000E-02    100.0000            kx2mul   1.0   0.0
pp2_mul162    log    factor      1.000000       0.5000000E-02    100.0000            kx2mul   1.0   0.0
pp2_mul163    log    factor      1.000000       0.5000000E-02    100.0000            kx2mul   1.0   0.0
pp2_mul164    log    factor      1.000000       0.5000000E-02    100.0000            kx2mul   1.0   0.0
pp2_mul165    log    factor      1.000000       0.5000000E-02    100.0000            kx2mul   1.0   0.0
pp2_mul166    log    factor      1.000000       0.5000000E-02    100.0000            kx2mul   1.0   0.0
pp2_mul167    log    factor      1.000000       0.5000000E-02    100.0000            kx2mul   1.0   0.0
pp2_mul168    log    factor      1.000000       0.5000000E-02    100.0000            kx2mul   1.0   0.0
pp2_mul169    log    factor      1.000000       0.5000000E-02    100.0000            kx2mul   1.0   0.0
pp2_mul170    log    factor      1.000000       0.5000000E-02    100.0000            kx2mul   1.0   0.0
pp2_mul171    log    factor      1.000000       0.5000000E-02    100.0000            kx2mul   1.0   0.0
pp2_mul172    log    factor      1.000000       0.5000000E-02    100.0000            kx2mul   1.0   0.0
pp2_mul173    log    factor      1.000000       0.5000000E-02    100.0000            kx2mul   1.0   0.0
pp2_mul174    log    factor      1.000000       0.5000000E-02    100.0000            kx2mul   1.0   0.0
pp2_mul175    log    factor      1.000000       0.5000000E-02    100.0000            kx2mul   1.0   0.0
pp2_mul176    log    factor      1.000000       0.5000000E-02    100.0000            kx2mul   1.0   0.0
pp2_mul177    log    factor      1.000000       0.5000000E-02    100.0000            kx2mul   1.0   0.0
pp2_mul178    log    factor      1.000000       0.5000000E-02    100.0000            kx2mul   1.0   0.0
pp2_mul179    log    factor      1.000000       0.5000000E-02    100.0000            kx2mul   1.0   0.0
pp2_mul180    log    factor      1.000000       0.5000000E-02    100.0000            kx2mul   1.0   0.0
pp2_mul181    log    factor      1.000000       0.5000000E-02    100.0000            kx2mul   1.0   0.0
pp2_mul182    log    factor      1.000000       0.5000000E-02    100.0000            kx2mul   1.0   0.0
pp2_mul183    log    factor      1.000000       0.5000000E-02    100.0000            kx2mul   1.0   0.0
pp2_mul184    log    factor      1.000000       0.5000000E-02    100.0000            kx2mul   1.0   0.0
pp2_mul185    log    factor      1.000000       0.5000000E-02    100.0000            kx2mul   1.0   0.0
pp2_mul186    log    factor      1.000000       0.5000000E-02    100.0000            kx2mul   1.0   0.0
pp2_mul187    log    factor      1.000000       0.5000000E-02    100.0000            kx2mul   1.0   0.0
pp2_mul188    log    factor      1.000000       0.5000000E-02    100.0000            kx2mul   1.0   0.0
pp2_mul189    log    factor      1.000000       0.5000000E-02    100.0000            kx2mul   1.0   0.0
pp2_mul190    log    factor      1.000000       0.5000000E-02    100.0000            kx2mul   1.0   0.0
pp2_mul191    log    factor      1.000000       0.5000000E-02    100.0000            kx2mul   1.0   0.0
pp2_mul192    log    factor      1.000000       0.5000000E-02    100.0000            kx2mul   1.0   0.0
pp2_mul193    log    factor      1.000000       0.5000000E-02    100.0000            kx2mul   1.0   0.0
pp2_mul194    log    factor      1.000000       0.5000000E-02    100.0000            kx2mul   1.0   0.0
pp2_mul195    log    factor      1.000000       0.5000000E-02    100.0000            kx2mul   1.0   0.0
pp2_mul196    log    factor      1.000000       0.5000000E-02    100.0000            kx2mul   1.0   0.0
pp2_mul197    log    factor      1.000000       0.5000000E-02    100.0000            kx2mul   1.0   0.0
pp2_mul198    log    factor      1.000000       0.5000000E-02    100.0000            kx2mul   1.0   0.0
pp2_mul199    log    factor      1.000000       0.5000000E-02    100.0000            kx2mul   1.0   0.0
pp2_mul200    log    factor      1.000000       0.5000000E-02    100.0000            kx2mul   1.0   0.0
pp2_mul201    log    factor      1.000000       0.5000000E-02    100.0000            kx2mul   1.0   0.0
pp2_mul202    log    factor      1.000000       0.5000000E-02    100.0000            kx2mul   1.0   0.0
pp2_mul203    log    factor      1.000000       0.5000000E-02    100.0000            kx2mul   1.0   0.0
pp2_mul204    log    factor      1.000000       0.5000000E-02    100.0000            kx2mul   1.0   0.0
pp2_mul205    log    factor      1.000000       0.5000000E-02    100.0000            kx2mul   1.0   0.0
pp2_mul206    log    factor      1.000000       0.5000000E-02    100.0000            kx2mul   1.0   0.0
pp2_mul207    log    factor      1.000000       0.5000000E-02    100.0000            kx2mul   1.0   0.0
pp2_mul208    log    factor      1.000000       0.5000000E-02    100.0000            kx2mul   1.0   0.0
pp2_mul209    log    factor      1.000000       0.5000000E-02    100.0000            kx2mul   1.0   0.0
pp2_mul210    log    factor      1.000000       0.5000000E-02    100.0000            kx2mul   1.0   0.0
pp2_mul211    log    factor      1.000000       0.5000000E-02    100.0000            kx2mul   1.0   0.0
pp2_mul212    log    factor      1.000000       0.5000000E-02    100.0000            kx2mul   1.0   0.0
pp2_mul213    log    factor      1.000000       0.5000000E-02    100.0000            kx2mul   1.0   0.0
pp2_mul214    log    factor      1.000000       0.5000000E-02    100.0000            kx2mul   1.0   0.0
pp2_mul215    log    factor      1.000000       0.5000000E-02    100.0000            kx2mul   1.0   0.0
pp2_mul216    log    factor      1.000000       0.5000000E-02    100.0000            kx2mul   1.0   0.0
pp2_mul217    log    factor      1.000000       0.5000000E-02    100.0000            kx2mul   1.0   0.0
pp2_mul218    log    factor      1.000000       0.5000000E-02    100.0000            kx2mul   1.0   0.0
pp2_mul219    log    factor      1.000000       0.5000000E-02    100.0000            kx2mul   1.0   0.0
pp2_mul220    log    factor      1.000000       0.5000000E-02    100.0000            kx2mul   1.0   0.0
pp2_mul221    log    factor      1.000000       0.5000000E-02    100.0000            kx2mul   1.0   0.0
pp2_mul222    log    factor      1.000000       0.5000000E-02    100.0000            kx2mul   1.0   0.0
pp2_mul223    log    factor      1.000000       0.5000000E-02    100.0000            kx2mul   1.0   0.0
pp2_mul224    log    factor      1.000000       0.5000000E-02    100.0000            kx2mul   1.0   0.0
pp2_mul225    log    factor      1.000000       0.5000000E-02    100.0000            kx2mul   1.0   0.0
pp2_mul226    log    factor      1.000000       0.5000000E-02    100.0000            kx2mul   1.0   0.0
pp2_mul227    log    factor      1.000000       0.5000000E-02    100.0000            kx2mul   1.0   0.0
pp2_mul228    log    factor      1.000000       0.5000000E-02    100.0000            kx2mul   1.0   0.0
pp2_mul229    log    factor      1.000000       0.5000000E-02    100.0000            kx2mul   1.0   0.0
pp2_mul230    log    factor      1.000000       0.5000000E-02    100.0000            kx2mul   1.0   0.0
pp2_mul231    log    factor      1.000000       0.5000000E-02    100.0000            kx2mul   1.0   0.0
pp2_mul232    log    factor      1.000000       0.5000000E-02    100.0000            kx2mul   1.0   0.0
pp2_mul233    log    factor      1.000000       0.5000000E-02    100.0000            kx2mul   1.0   0.0
pp2_mul234    log    factor      1.000000       0.5000000E-02    100.0000            kx2mul   1.0   0.0
pp2_mul235    log    factor      1.000000       0.5000000E-02    100.0000            kx2mul   1.0   0.0
pp2_mul236    log    factor      1.000000       0.5000000E-02    100.0000            kx2mul   1.0   0.0
pp2_mul237    log    factor      1.000000       0.5000000E-02    100.0000            kx2mul   1.0   0.0
pp2_mul238    log    factor      1.000000       0.5000000E-02    100.0000            kx2mul   1.0   0.0
pp2_mul239    log    factor      1.000000       0.5000000E-02    100.0000            kx2mul   1.0   0.0
pp2_mul240    log    factor      1.000000       0.5000000E-02    100.0000            kx2mul   1.0   0.0
pp2_mul241    log    factor      1.000000       0.5000000E-02    100.0000            kx2mul   1.0   0.0
pp2_mul242    log    factor      1.000000       0.5000000E-02    100.0000            kx2mul   1.0   0.0
pp2_mul243    log    factor      1.000000       0.5000000E-02    100.0000            kx2mul   1.0   0.0
pp2_mul244    log    factor      1.000000       0.5000000E-02    100.0000            kx2mul   1.0   0.0
pp2_mul245    log    factor      1.000000       0.5000000E-02    100.0000            kx2mul   1.0   0.0
pp2_mul246    log    factor      1.000000       0.5000000E-02    100.0000            kx2mul   1.0   0.0
pp2_mul247    log    factor      1.000000       0.5000000E-02    100.0000            kx2mul   1.0   0.0
pp2_mul248    log    factor      1.000000       0.5000000E-02    100.0000            kx2mul   1.0   0.0