# File generated by Flopy version 3.3.3 on 11/04/2020 at 11:51:14.
BEGIN options
  BOUNDNAMES
  OBS6  FILEIN  model.chd.obs
END options

BEGIN dimensions
  MAXBOUND  320
END dimensions

BEGIN period  1
  1 43      90.00000000  river-bc
  1 4633      90.00000000  river-bc
  1 45      90.00000000  river-bc
  1 4631      90.00000000  river-bc
  1 48      90.00000000  river-bc
  1 4628      90.00000000  river-bc
  1 50      90.00000000  river-bc
  1 4626      90.00000000  river-bc
  1 54      90.00000000  river-bc
  1 4622      90.00000000  river-bc
  1 56      90.00000000  river-bc
  1 4620      90.00000000  river-bc
  1 59      90.00000000  river-bc
  1 4617      90.00000000  river-bc
  1 61      90.00000000  river-bc
  1 4615      90.00000000  river-bc
  1 104      90.00000000  river-bc
  1 4572      90.00000000  river-bc
  1 106      90.00000000  river-bc
  1 4570      90.00000000  river-bc
  1 109      90.00000000  river-bc
  1 4567      90.00000000  river-bc
  1 111      90.00000000  river-bc
  1 4565      90.00000000  river-bc
  1 115      90.00000000  river-bc
  1 4561      90.00000000  river-bc
  1 117      90.00000000  river-bc
  1 4559      90.00000000  river-bc
  1 120      90.00000000  river-bc
  1 4556      90.00000000  river-bc
  1 122      90.00000000  river-bc
  1 4554      90.00000000  river-bc
  1 165      90.00000000  river-bc
  1 4511      90.00000000  river-bc
  1 167      90.00000000  river-bc
  1 4509      90.00000000  river-bc
  1 170      90.00000000  river-bc
  1 4506      90.00000000  river-bc
  1 172      90.00000000  river-bc
  1 4504      90.00000000  river-bc
  1 176      90.00000000  river-bc
  1 4500      90.00000000  river-bc
  1 178      90.00000000  river-bc
  1 4498      90.00000000  river-bc
  1 181      90.00000000  river-bc
  1 4495      90.00000000  river-bc
  1 183      90.00000000  river-bc
  1 4493      90.00000000  river-bc
  1 226      90.00000000  river-bc
  1 4450      90.00000000  river-bc
  1 228      90.00000000  river-bc
  1 4448      90.00000000  river-bc
  1 231      90.00000000  river-bc
  1 4445      90.00000000  river-bc
  1 233      90.00000000  river-bc
  1 4443      90.00000000  river-bc
  1 237      90.00000000  river-bc
  1 4439      90.00000000  river-bc
  1 239      90.00000000  river-bc
  1 4437      90.00000000  river-bc
  1 242      90.00000000  river-bc
  1 4434      90.00000000  river-bc
  1 244      90.00000000  river-bc
  1 4432      90.00000000  river-bc
  1 287      90.00000000  river-bc
  1 4389      90.00000000  river-bc
  1 289      90.00000000  river-bc
  1 4387      90.00000000  river-bc
  1 292      90.00000000  river-bc
  1 4384      90.00000000  river-bc
  1 294      90.00000000  river-bc
  1 4382      90.00000000  river-bc
  1 298      90.00000000  river-bc
  1 4378      90.00000000  river-bc
  1 300      90.00000000  river-bc
  1 4376      90.00000000  river-bc
  1 303      90.00000000  river-bc
  1 4373      90.00000000  river-bc
  1 305      90.00000000  river-bc
  1 4371      90.00000000  river-bc
  1 348      90.00000000  river-bc
  1 4328      90.00000000  river-bc
  1 350      90.00000000  river-bc
  1 4326      90.00000000  river-bc
  1 353      90.00000000  river-bc
  1 4323      90.00000000  river-bc
  1 355      90.00000000  river-bc
  1 4321      90.00000000  river-bc
  1 359      90.00000000  river-bc
  1 4317      90.00000000  river-bc
  1 361      90.00000000  river-bc
  1 4315      90.00000000  river-bc
  1 364      90.00000000  river-bc
  1 4312      90.00000000  river-bc
  1 366      90.00000000  river-bc
  1 4310      90.00000000  river-bc
  1 409      90.00000000  river-bc
  1 4267      90.00000000  river-bc
  1 411      90.00000000  river-bc
  1 4265      90.00000000  river-bc
  1 414      90.00000000  river-bc
  1 4262      90.00000000  river-bc
  1 416      90.00000000  river-bc
  1 4260      90.00000000  river-bc
  1 420      90.00000000  river-bc
  1 4256      90.00000000  river-bc
  1 422      90.00000000  river-bc
  1 4254      90.00000000  river-bc
  1 425      90.00000000  river-bc
  1 4251      90.00000000  river-bc
  1 427      90.00000000  river-bc
  1 4249      90.00000000  river-bc
  1 470      90.00000000  river-bc
  1 4206      90.00000000  river-bc
  1 472      90.00000000  river-bc
  1 4204      90.00000000  river-bc
  1 475      90.00000000  river-bc
  1 4201      90.00000000  river-bc
  1 477      90.00000000  river-bc
  1 4199      90.00000000  river-bc
  1 481      90.00000000  river-bc
  1 4195      90.00000000  river-bc
  1 483      90.00000000  river-bc
  1 4193      90.00000000  river-bc
  1 486      90.00000000  river-bc
  1 4190      90.00000000  river-bc
  1 488      90.00000000  river-bc
  1 4188      90.00000000  river-bc
  1 531      90.00000000  river-bc
  1 4145      90.00000000  river-bc
  1 533      90.00000000  river-bc
  1 4143      90.00000000  river-bc
  1 536      90.00000000  river-bc
  1 4140      90.00000000  river-bc
  1 538      90.00000000  river-bc
  1 4138      90.00000000  river-bc
  1 542      90.00000000  river-bc
  1 4134      90.00000000  river-bc
  1 544      90.00000000  river-bc
  1 4132      90.00000000  river-bc
  1 547      90.00000000  river-bc
  1 4129      90.00000000  river-bc
  1 549      90.00000000  river-bc
  1 4127      90.00000000  river-bc
  1 595      90.00000000  river-bc
  1 4084      90.00000000  river-bc
  1 597      90.00000000  river-bc
  1 4082      90.00000000  river-bc
  1 600      90.00000000  river-bc
  1 4079      90.00000000  river-bc
  1 602      90.00000000  river-bc
  1 4077      90.00000000  river-bc
  1 606      90.00000000  river-bc
  1 4073      90.00000000  river-bc
  1 608      90.00000000  river-bc
  1 4071      90.00000000  river-bc
  1 611      90.00000000  river-bc
  1 4068      90.00000000  river-bc
  1 613      90.00000000  river-bc
  1 4066      90.00000000  river-bc
  1 713      90.00000000  river-bc
  1 4020      90.00000000  river-bc
  1 715      90.00000000  river-bc
  1 4018      90.00000000  river-bc
  1 718      90.00000000  river-bc
  1 4015      90.00000000  river-bc
  1 720      90.00000000  river-bc
  1 4013      90.00000000  river-bc
  1 724      90.00000000  river-bc
  1 4009      90.00000000  river-bc
  1 726      90.00000000  river-bc
  1 4007      90.00000000  river-bc
  1 729      90.00000000  river-bc
  1 4004      90.00000000  river-bc
  1 731      90.00000000  river-bc
  1 4002      90.00000000  river-bc
  1 855      90.00000000  river-bc
  1 3926      90.00000000  river-bc
  1 857      90.00000000  river-bc
  1 3924      90.00000000  river-bc
  1 860      90.00000000  river-bc
  1 3921      90.00000000  river-bc
  1 862      90.00000000  river-bc
  1 3919      90.00000000  river-bc
  1 866      90.00000000  river-bc
  1 3915      90.00000000  river-bc
  1 868      90.00000000  river-bc
  1 3913      90.00000000  river-bc
  1 871      90.00000000  river-bc
  1 3910      90.00000000  river-bc
  1 873      90.00000000  river-bc
  1 3908      90.00000000  river-bc
  1 949      90.00000000  river-bc
  1 3805      90.00000000  river-bc
  1 951      90.00000000  river-bc
  1 3803      90.00000000  river-bc
  1 954      90.00000000  river-bc
  1 3800      90.00000000  river-bc
  1 956      90.00000000  river-bc
  1 3798      90.00000000  river-bc
  1 960      90.00000000  river-bc
  1 3794      90.00000000  river-bc
  1 962      90.00000000  river-bc
  1 3792      90.00000000  river-bc
  1 965      90.00000000  river-bc
  1 3789      90.00000000  river-bc
  1 967      90.00000000  river-bc
  1 3787      90.00000000  river-bc
  1 1046      90.00000000  river-bc
  1 3648      90.00000000  river-bc
  1 1048      90.00000000  river-bc
  1 3646      90.00000000  river-bc
  1 1051      90.00000000  river-bc
  1 3643      90.00000000  river-bc
  1 1053      90.00000000  river-bc
  1 3641      90.00000000  river-bc
  1 1057      90.00000000  river-bc
  1 3637      90.00000000  river-bc
  1 1059      90.00000000  river-bc
  1 3635      90.00000000  river-bc
  1 1062      90.00000000  river-bc
  1 3632      90.00000000  river-bc
  1 1064      90.00000000  river-bc
  1 3630      90.00000000  river-bc
  1 1161      90.00000000  river-bc
  1 3491      90.00000000  river-bc
  1 1163      90.00000000  river-bc
  1 3489      90.00000000  river-bc
  1 1166      90.00000000  river-bc
  1 3486      90.00000000  river-bc
  1 1168      90.00000000  river-bc
  1 3484      90.00000000  river-bc
  1 1172      90.00000000  river-bc
  1 3480      90.00000000  river-bc
  1 1174      90.00000000  river-bc
  1 3478      90.00000000  river-bc
  1 1177      90.00000000  river-bc
  1 3475      90.00000000  river-bc
  1 1179      90.00000000  river-bc
  1 3473      90.00000000  river-bc
  1 1309      90.00000000  river-bc
  1 3358      90.00000000  river-bc
  1 1311      90.00000000  river-bc
  1 3356      90.00000000  river-bc
  1 1314      90.00000000  river-bc
  1 3353      90.00000000  river-bc
  1 1316      90.00000000  river-bc
  1 3351      90.00000000  river-bc
  1 1320      90.00000000  river-bc
  1 3347      90.00000000  river-bc
  1 1322      90.00000000  river-bc
  1 3345      90.00000000  river-bc
  1 1325      90.00000000  river-bc
  1 3342      90.00000000  river-bc
  1 1327      90.00000000  river-bc
  1 3340      90.00000000  river-bc
  1 1499      90.00000000  river-bc
  1 3252      90.00000000  river-bc
  1 1501      90.00000000  river-bc
  1 3250      90.00000000  river-bc
  1 1504      90.00000000  river-bc
  1 3247      90.00000000  river-bc
  1 1506      90.00000000  river-bc
  1 3245      90.00000000  river-bc
  1 1510      90.00000000  river-bc
  1 3241      90.00000000  river-bc
  1 1512      90.00000000  river-bc
  1 3239      90.00000000  river-bc
  1 1515      90.00000000  river-bc
  1 3236      90.00000000  river-bc
  1 1517      90.00000000  river-bc
  1 3234      90.00000000  river-bc
  1 1641      90.00000000  river-bc
  1 3137      90.00000000  river-bc
  1 1643      90.00000000  river-bc
  1 3135      90.00000000  river-bc
  1 1646      90.00000000  river-bc
  1 3132      90.00000000  river-bc
  1 1648      90.00000000  river-bc
  1 3130      90.00000000  river-bc
  1 1652      90.00000000  river-bc
  1 3126      90.00000000  river-bc
  1 1654      90.00000000  river-bc
  1 3124      90.00000000  river-bc
  1 1657      90.00000000  river-bc
  1 3121      90.00000000  river-bc
  1 1659      90.00000000  river-bc
  1 3119      90.00000000  river-bc
  1 1777      90.00000000  river-bc
  1 3013      90.00000000  river-bc
  1 1779      90.00000000  river-bc
  1 3011      90.00000000  river-bc
  1 1782      90.00000000  river-bc
  1 3008      90.00000000  river-bc
  1 1784      90.00000000  river-bc
  1 3006      90.00000000  river-bc
  1 1788      90.00000000  river-bc
  1 3002      90.00000000  river-bc
  1 1790      90.00000000  river-bc
  1 3000      90.00000000  river-bc
  1 1793      90.00000000  river-bc
  1 2997      90.00000000  river-bc
  1 1795      90.00000000  river-bc
  1 2995      90.00000000  river-bc
  1 2108      90.00000000  river-bc
  1 2823      90.00000000  river-bc
  1 2110      90.00000000  river-bc
  1 2821      90.00000000  river-bc
  1 2113      90.00000000  river-bc
  1 2818      90.00000000  river-bc
  1 2115      90.00000000  river-bc
  1 2816      90.00000000  river-bc
  1 2122      90.00000000  river-bc
  1 2812      90.00000000  river-bc
  1 2124      90.00000000  river-bc
  1 2810      90.00000000  river-bc
  1 2127      90.00000000  river-bc
  1 2807      90.00000000  river-bc
  1 2129      90.00000000  river-bc
  1 2805      90.00000000  river-bc
END period  1

