# File generated by Flopy version 3.3.3 on 11/04/2020 at 11:51:14.
BEGIN options
  BOUNDNAMES
  TS6  FILEIN  ghb.ts
  OBS6  FILEIN  model.ghb.obs
END options

BEGIN dimensions
  MAXBOUND  110
END dimensions

BEGIN period  1
  1 1     151.56938099    1000.00000000  west-boundary_1
  1 4573     151.56938099    1000.00000000  west-boundary_1
  1 62     151.56938099    1000.00000000  west-boundary_1
  1 4512     151.56938099    1000.00000000  west-boundary_1
  1 123     151.56938099    1000.00000000  west-boundary_1
  1 4451     151.56938099    1000.00000000  west-boundary_1
  1 184     151.56938099    1000.00000000  west-boundary_1
  1 4390     151.56938099    1000.00000000  west-boundary_1
  1 245     151.56938099    1000.00000000  west-boundary_1
  1 4329     151.56938099    1000.00000000  west-boundary_1
  1 306     151.56938099    1000.00000000  west-boundary_1
  1 4268     151.56938099    1000.00000000  west-boundary_1
  1 367     151.56938099    1000.00000000  west-boundary_1
  1 4207     151.56938099    1000.00000000  west-boundary_1
  1 428     151.56938099    1000.00000000  west-boundary_1
  1 4146     151.56938099    1000.00000000  west-boundary_1
  1 489     151.56938099    1000.00000000  west-boundary_1
  1 4085     151.56938099    1000.00000000  west-boundary_1
  1 550     151.56938099    1000.00000000  west-boundary_1
  1 4023     151.56938099    1000.00000000  west-boundary_1
  1 552     151.56938099    1000.00000000  west-boundary_1
  1 4021     151.56938099    1000.00000000  west-boundary_1
  1 614     151.56938099    1000.00000000  west-boundary_1
  1 3952     151.56938099    1000.00000000  west-boundary_1
  1 616     151.56938099    1000.00000000  west-boundary_1
  1 3949     151.56938099    1000.00000000  west-boundary_1
  1 618     151.56938099    1000.00000000  west-boundary_1
  1 3947     151.56938099    1000.00000000  west-boundary_1
  1 625     151.56938099    1000.00000000  west-boundary_1
  1 3934     151.56938099    1000.00000000  west-boundary_1
  1 627     151.56938099    1000.00000000  west-boundary_1
  1 3932     151.56938099    1000.00000000  west-boundary_1
  1 633     151.56938099    1000.00000000  west-boundary_1
  1 3927     151.56938099    1000.00000000  west-boundary_1
  1 732     151.56938099    1000.00000000  west-boundary_1
  1 3810     151.56938099    1000.00000000  west-boundary_1
  1 737     151.56938099    1000.00000000  west-boundary_1
  1 3808     151.56938099    1000.00000000  west-boundary_1
  1 874     151.56938099    1000.00000000  west-boundary_1
  1 3806     151.56938099    1000.00000000  west-boundary_1
  1 968     151.56938099    1000.00000000  west-boundary_1
  1 3649     151.56938099    1000.00000000  west-boundary_1
  1 1065     151.56938099    1000.00000000  west-boundary_1
  1 3492     151.56938099    1000.00000000  west-boundary_1
  1 1180     151.56938099    1000.00000000  west-boundary_1
  1 3359     151.56938099    1000.00000000  west-boundary_1
  1 1328     151.56938099    1000.00000000  west-boundary_1
  1 3253     151.56938099    1000.00000000  west-boundary_1
  1 1518     151.56938099    1000.00000000  west-boundary_1
  1 3138     151.56938099    1000.00000000  west-boundary_1
  1 1660     151.56938099    1000.00000000  west-boundary_1
  1 3014     151.56938099    1000.00000000  west-boundary_1
  1 1796     151.56938099    1000.00000000  west-boundary_1
  1 2824     151.56938099    1000.00000000  west-boundary_1
  1 2130     151.56938099    1000.00000000  west-boundary_1
  3 1     151.56938099    1000.00000000  west-boundary_3
  3 4573     151.56938099    1000.00000000  west-boundary_3
  3 62     151.56938099    1000.00000000  west-boundary_3
  3 4512     151.56938099    1000.00000000  west-boundary_3
  3 123     151.56938099    1000.00000000  west-boundary_3
  3 4451     151.56938099    1000.00000000  west-boundary_3
  3 184     151.56938099    1000.00000000  west-boundary_3
  3 4390     151.56938099    1000.00000000  west-boundary_3
  3 245     151.56938099    1000.00000000  west-boundary_3
  3 4329     151.56938099    1000.00000000  west-boundary_3
  3 306     151.56938099    1000.00000000  west-boundary_3
  3 4268     151.56938099    1000.00000000  west-boundary_3
  3 367     151.56938099    1000.00000000  west-boundary_3
  3 4207     151.56938099    1000.00000000  west-boundary_3
  3 428     151.56938099    1000.00000000  west-boundary_3
  3 4146     151.56938099    1000.00000000  west-boundary_3
  3 489     151.56938099    1000.00000000  west-boundary_3
  3 4085     151.56938099    1000.00000000  west-boundary_3
  3 550     151.56938099    1000.00000000  west-boundary_3
  3 4023     151.56938099    1000.00000000  west-boundary_3
  3 552     151.56938099    1000.00000000  west-boundary_3
  3 4021     151.56938099    1000.00000000  west-boundary_3
  3 614     151.56938099    1000.00000000  west-boundary_3
  3 3952     151.56938099    1000.00000000  west-boundary_3
  3 616     151.56938099    1000.00000000  west-boundary_3
  3 3949     151.56938099    1000.00000000  west-boundary_3
  3 618     151.56938099    1000.00000000  west-boundary_3
  3 3947     151.56938099    1000.00000000  west-boundary_3
  3 625     151.56938099    1000.00000000  west-boundary_3
  3 3934     151.56938099    1000.00000000  west-boundary_3
  3 627     151.56938099    1000.00000000  west-boundary_3
  3 3932     151.56938099    1000.00000000  west-boundary_3
  3 633     151.56938099    1000.00000000  west-boundary_3
  3 3927     151.56938099    1000.00000000  west-boundary_3
  3 732     151.56938099    1000.00000000  west-boundary_3
  3 3810     151.56938099    1000.00000000  west-boundary_3
  3 737     151.56938099    1000.00000000  west-boundary_3
  3 3808     151.56938099    1000.00000000  west-boundary_3
  3 874     151.56938099    1000.00000000  west-boundary_3
  3 3806     151.56938099    1000.00000000  west-boundary_3
  3 968     151.56938099    1000.00000000  west-boundary_3
  3 3649     151.56938099    1000.00000000  west-boundary_3
  3 1065     151.56938099    1000.00000000  west-boundary_3
  3 3492     151.56938099    1000.00000000  west-boundary_3
  3 1180     151.56938099    1000.00000000  west-boundary_3
  3 3359     151.56938099    1000.00000000  west-boundary_3
  3 1328     151.56938099    1000.00000000  west-boundary_3
  3 3253     151.56938099    1000.00000000  west-boundary_3
  3 1518     151.56938099    1000.00000000  west-boundary_3
  3 3138     151.56938099    1000.00000000  west-boundary_3
  3 1660     151.56938099    1000.00000000  west-boundary_3
  3 3014     151.56938099    1000.00000000  west-boundary_3
  3 1796     151.56938099    1000.00000000  west-boundary_3
  3 2824     151.56938099    1000.00000000  west-boundary_3
  3 2130     151.56938099    1000.00000000  west-boundary_3
END period  1

BEGIN period  2
  1 1  ghb_ghb    1000.00000000  west-boundary_1
  1 4573  ghb_ghb    1000.00000000  west-boundary_1
  1 62  ghb_ghb    1000.00000000  west-boundary_1
  1 4512  ghb_ghb    1000.00000000  west-boundary_1
  1 123  ghb_ghb    1000.00000000  west-boundary_1
  1 4451  ghb_ghb    1000.00000000  west-boundary_1
  1 184  ghb_ghb    1000.00000000  west-boundary_1
  1 4390  ghb_ghb    1000.00000000  west-boundary_1
  1 245  ghb_ghb    1000.00000000  west-boundary_1
  1 4329  ghb_ghb    1000.00000000  west-boundary_1
  1 306  ghb_ghb    1000.00000000  west-boundary_1
  1 4268  ghb_ghb    1000.00000000  west-boundary_1
  1 367  ghb_ghb    1000.00000000  west-boundary_1
  1 4207  ghb_ghb    1000.00000000  west-boundary_1
  1 428  ghb_ghb    1000.00000000  west-boundary_1
  1 4146  ghb_ghb    1000.00000000  west-boundary_1
  1 489  ghb_ghb    1000.00000000  west-boundary_1
  1 4085  ghb_ghb    1000.00000000  west-boundary_1
  1 550  ghb_ghb    1000.00000000  west-boundary_1
  1 4023  ghb_ghb    1000.00000000  west-boundary_1
  1 552  ghb_ghb    1000.00000000  west-boundary_1
  1 4021  ghb_ghb    1000.00000000  west-boundary_1
  1 614  ghb_ghb    1000.00000000  west-boundary_1
  1 3952  ghb_ghb    1000.00000000  west-boundary_1
  1 616  ghb_ghb    1000.00000000  west-boundary_1
  1 3949  ghb_ghb    1000.00000000  west-boundary_1
  1 618  ghb_ghb    1000.00000000  west-boundary_1
  1 3947  ghb_ghb    1000.00000000  west-boundary_1
  1 625  ghb_ghb    1000.00000000  west-boundary_1
  1 3934  ghb_ghb    1000.00000000  west-boundary_1
  1 627  ghb_ghb    1000.00000000  west-boundary_1
  1 3932  ghb_ghb    1000.00000000  west-boundary_1
  1 633  ghb_ghb    1000.00000000  west-boundary_1
  1 3927  ghb_ghb    1000.00000000  west-boundary_1
  1 732  ghb_ghb    1000.00000000  west-boundary_1
  1 3810  ghb_ghb    1000.00000000  west-boundary_1
  1 737  ghb_ghb    1000.00000000  west-boundary_1
  1 3808  ghb_ghb    1000.00000000  west-boundary_1
  1 874  ghb_ghb    1000.00000000  west-boundary_1
  1 3806  ghb_ghb    1000.00000000  west-boundary_1
  1 968  ghb_ghb    1000.00000000  west-boundary_1
  1 3649  ghb_ghb    1000.00000000  west-boundary_1
  1 1065  ghb_ghb    1000.00000000  west-boundary_1
  1 3492  ghb_ghb    1000.00000000  west-boundary_1
  1 1180  ghb_ghb    1000.00000000  west-boundary_1
  1 3359  ghb_ghb    1000.00000000  west-boundary_1
  1 1328  ghb_ghb    1000.00000000  west-boundary_1
  1 3253  ghb_ghb    1000.00000000  west-boundary_1
  1 1518  ghb_ghb    1000.00000000  west-boundary_1
  1 3138  ghb_ghb    1000.00000000  west-boundary_1
  1 1660  ghb_ghb    1000.00000000  west-boundary_1
  1 3014  ghb_ghb    1000.00000000  west-boundary_1
  1 1796  ghb_ghb    1000.00000000  west-boundary_1
  1 2824  ghb_ghb    1000.00000000  west-boundary_1
  1 2130  ghb_ghb    1000.00000000  west-boundary_1
  3 1  ghb_ghb    1000.00000000  west-boundary_3
  3 4573  ghb_ghb    1000.00000000  west-boundary_3
  3 62  ghb_ghb    1000.00000000  west-boundary_3
  3 4512  ghb_ghb    1000.00000000  west-boundary_3
  3 123  ghb_ghb    1000.00000000  west-boundary_3
  3 4451  ghb_ghb    1000.00000000  west-boundary_3
  3 184  ghb_ghb    1000.00000000  west-boundary_3
  3 4390  ghb_ghb    1000.00000000  west-boundary_3
  3 245  ghb_ghb    1000.00000000  west-boundary_3
  3 4329  ghb_ghb    1000.00000000  west-boundary_3
  3 306  ghb_ghb    1000.00000000  west-boundary_3
  3 4268  ghb_ghb    1000.00000000  west-boundary_3
  3 367  ghb_ghb    1000.00000000  west-boundary_3
  3 4207  ghb_ghb    1000.00000000  west-boundary_3
  3 428  ghb_ghb    1000.00000000  west-boundary_3
  3 4146  ghb_ghb    1000.00000000  west-boundary_3
  3 489  ghb_ghb    1000.00000000  west-boundary_3
  3 4085  ghb_ghb    1000.00000000  west-boundary_3
  3 550  ghb_ghb    1000.00000000  west-boundary_3
  3 4023  ghb_ghb    1000.00000000  west-boundary_3
  3 552  ghb_ghb    1000.00000000  west-boundary_3
  3 4021  ghb_ghb    1000.00000000  west-boundary_3
  3 614  ghb_ghb    1000.00000000  west-boundary_3
  3 3952  ghb_ghb    1000.00000000  west-boundary_3
  3 616  ghb_ghb    1000.00000000  west-boundary_3
  3 3949  ghb_ghb    1000.00000000  west-boundary_3
  3 618  ghb_ghb    1000.00000000  west-boundary_3
  3 3947  ghb_ghb    1000.00000000  west-boundary_3
  3 625  ghb_ghb    1000.00000000  west-boundary_3
  3 3934  ghb_ghb    1000.00000000  west-boundary_3
  3 627  ghb_ghb    1000.00000000  west-boundary_3
  3 3932  ghb_ghb    1000.00000000  west-boundary_3
  3 633  ghb_ghb    1000.00000000  west-boundary_3
  3 3927  ghb_ghb    1000.00000000  west-boundary_3
  3 732  ghb_ghb    1000.00000000  west-boundary_3
  3 3810  ghb_ghb    1000.00000000  west-boundary_3
  3 737  ghb_ghb    1000.00000000  west-boundary_3
  3 3808  ghb_ghb    1000.00000000  west-boundary_3
  3 874  ghb_ghb    1000.00000000  west-boundary_3
  3 3806  ghb_ghb    1000.00000000  west-boundary_3
  3 968  ghb_ghb    1000.00000000  west-boundary_3
  3 3649  ghb_ghb    1000.00000000  west-boundary_3
  3 1065  ghb_ghb    1000.00000000  west-boundary_3
  3 3492  ghb_ghb    1000.00000000  west-boundary_3
  3 1180  ghb_ghb    1000.00000000  west-boundary_3
  3 3359  ghb_ghb    1000.00000000  west-boundary_3
  3 1328  ghb_ghb    1000.00000000  west-boundary_3
  3 3253  ghb_ghb    1000.00000000  west-boundary_3
  3 1518  ghb_ghb    1000.00000000  west-boundary_3
  3 3138  ghb_ghb    1000.00000000  west-boundary_3
  3 1660  ghb_ghb    1000.00000000  west-boundary_3
  3 3014  ghb_ghb    1000.00000000  west-boundary_3
  3 1796  ghb_ghb    1000.00000000  west-boundary_3
  3 2824  ghb_ghb    1000.00000000  west-boundary_3
  3 2130  ghb_ghb    1000.00000000  west-boundary_3
END period  2

