# File generated by Flopy version 3.3.3 on 04/14/2021 at 16:24:13.
BEGIN options
  auxiliary  MULTIPLIER
  AUXMULTNAME  multiplier
  BOUNDNAMES
END options

BEGIN dimensions
  MAXBOUND  65
END dimensions

BEGIN period  1
  1 275  2.05479452E-04       1.00000000  landuse3
  1 276  2.05479452E-04       1.00000000  landuse3
  1 334  2.05479452E-04       1.00000000  landuse3
  1 335  2.05479452E-04       1.00000000  landuse3
  1 456  2.05479452E-04       1.00000000  landuse3
  1 395  2.05479452E-04       1.00000000  landuse3
  1 458  2.05479452E-04       1.00000000  landuse3
  1 396  2.05479452E-04       1.00000000  landuse3
  1 521  2.05479452E-04       1.00000000  landuse3
  1 519  2.05479452E-04       1.00000000  landuse3
  1 520  2.05479452E-04       1.00000000  landuse3
  1 516  2.05479452E-04       1.00000000  landuse3
  1 586  2.05479452E-04       1.00000000  landuse3
  1 517  2.05479452E-04       1.00000000  landuse3
  1 583  2.05479452E-04       1.00000000  landuse3
  1 645  2.05479452E-04       1.00000000  landuse3
  1 647  2.05479452E-04       1.00000000  landuse3
  1 710  2.05479452E-04       1.00000000  landuse3
  1 712  2.05479452E-04       1.00000000  landuse3
  1 771  2.05479452E-04       1.00000000  landuse3
  1 773  2.05479452E-04       1.00000000  landuse3
  1 835  2.05479452E-04       1.00000000  landuse3
  1 833  2.05479452E-04       1.00000000  landuse3
  1 834  2.05479452E-04       1.00000000  landuse3
  1 457  2.05479452E-04       1.00000000  landuse3
  1 518  2.05479452E-04       1.00000000  landuse3
  1 584  2.05479452E-04       1.00000000  landuse3
  1 585  2.05479452E-04       1.00000000  landuse3
  1 646  2.05479452E-04       1.00000000  landuse3
  1 711  2.05479452E-04       1.00000000  landuse3
  1 772  2.05479452E-04       1.00000000  landuse3
  1 214  2.05479452E-04       1.00000000  landuse3
  1 215  2.05479452E-04       1.00000000  landuse3
  1 216  2.05479452E-04       1.00000000  landuse3
  1 217  2.05479452E-04       1.00000000  landuse3
  1 274  2.05479452E-04       1.00000000  landuse3
  1 277  2.05479452E-04       1.00000000  landuse3
  1 333  2.05479452E-04       1.00000000  landuse3
  1 336  2.05479452E-04       1.00000000  landuse3
  1 455  2.05479452E-04       1.00000000  landuse3
  1 394  2.05479452E-04       1.00000000  landuse3
  1 397  2.05479452E-04       1.00000000  landuse3
  1 461  2.05479452E-04       1.00000000  landuse3
  1 459  2.05479452E-04       1.00000000  landuse3
  1 460  2.05479452E-04       1.00000000  landuse3
  1 462  2.05479452E-04       1.00000000  landuse3
  1 515  2.05479452E-04       1.00000000  landuse3
  1 522  2.05479452E-04       1.00000000  landuse3
  1 587  2.05479452E-04       1.00000000  landuse3
  1 582  2.05479452E-04       1.00000000  landuse3
  1 580  2.05479452E-04       1.00000000  landuse3
  1 581  2.05479452E-04       1.00000000  landuse3
  1 644  2.05479452E-04       1.00000000  landuse3
  1 648  2.05479452E-04       1.00000000  landuse3
  1 709  2.05479452E-04       1.00000000  landuse3
  1 713  2.05479452E-04       1.00000000  landuse3
  1 770  2.05479452E-04       1.00000000  landuse3
  1 774  2.05479452E-04       1.00000000  landuse3
  1 836  2.05479452E-04       1.00000000  landuse3
  1 832  2.05479452E-04       1.00000000  landuse3
  1 903  2.05479452E-04       1.00000000  landuse3
  1 902  2.05479452E-04       1.00000000  landuse3
  1 904  2.05479452E-04       1.00000000  landuse3
  1 901  2.05479452E-04       1.00000000  landuse3
  1 900  2.05479452E-04       1.00000000  landuse3
END period  1

