pcf
* control data
restart estimation
      2205         0         3         0         0
    3  0    single  point
 10.0  -3.0  0.3  0.03  10  lamforgive
 10.0  10.0  0.001
 0.1
 50  0.005  4  4  0.005  4
 0  0  0
* singular value decomposition
1
  5000  5e-7
0
* parameter groups
changethis    relative   0.015   0.0  switch  2  parabolic
strc          relative   0.015   0.0  switch  2  parabolic
ghbc          relative   0.015   0.0  switch  2  parabolic
* parameter data
kx1pp001      log    factor      1.000000       0.1000000        10.00000        changethis   1.0   0.0
kx2pp001      log    factor      1.000000       0.1000000        10.00000        changethis   1.0   0.0
kx3pp001      log    factor      1.000000       0.1000000        10.00000        changethis   1.0   0.0
rchpp001      log    factor      1.000000       0.1000000        10.00000        changethis   1.0   0.0
kx1pp002      log    factor      1.000000       0.1000000        10.00000        changethis   1.0   0.0
kx2pp002      log    factor      1.000000       0.1000000        10.00000        changethis   1.0   0.0
kx3pp002      log    factor      1.000000       0.1000000        10.00000        changethis   1.0   0.0
rchpp002      log    factor      1.000000       0.1000000        10.00000        changethis   1.0   0.0
kx1pp003      log    factor      1.000000       0.1000000        10.00000        changethis   1.0   0.0
kx2pp003      log    factor      1.000000       0.1000000        10.00000        changethis   1.0   0.0
kx3pp003      log    factor      1.000000       0.1000000        10.00000        changethis   1.0   0.0
rchpp003      log    factor      1.000000       0.1000000        10.00000        changethis   1.0   0.0
kx1pp004      log    factor      1.000000       0.1000000        10.00000        changethis   1.0   0.0
kx2pp004      log    factor      1.000000       0.1000000        10.00000        changethis   1.0   0.0
kx3pp004      log    factor      1.000000       0.1000000        10.00000        changethis   1.0   0.0
rchpp004      log    factor      1.000000       0.1000000        10.00000        changethis   1.0   0.0
kx1pp005      log    factor      1.000000       0.1000000        10.00000        changethis   1.0   0.0
kx2pp005      log    factor      1.000000       0.1000000        10.00000        changethis   1.0   0.0
kx3pp005      log    factor      1.000000       0.1000000        10.00000        changethis   1.0   0.0
rchpp005      log    factor      1.000000       0.1000000        10.00000        changethis   1.0   0.0
kx1pp006      log    factor      1.000000       0.1000000        10.00000        changethis   1.0   0.0
kx2pp006      log    factor      1.000000       0.1000000        10.00000        changethis   1.0   0.0
kx3pp006      log    factor      1.000000       0.1000000        10.00000        changethis   1.0   0.0
rchpp006      log    factor      1.000000       0.1000000        10.00000        changethis   1.0   0.0
kx1pp007      log    factor      1.000000       0.1000000        10.00000        changethis   1.0   0.0
kx2pp007      log    factor      1.000000       0.1000000        10.00000        changethis   1.0   0.0
kx3pp007      log    factor      1.000000       0.1000000        10.00000        changethis   1.0   0.0
rchpp007      log    factor      1.000000       0.1000000        10.00000        changethis   1.0   0.0
kx1pp008      log    factor      1.000000       0.1000000        10.00000        changethis   1.0   0.0
kx2pp008      log    factor      1.000000       0.1000000        10.00000        changethis   1.0   0.0
kx3pp008      log    factor      1.000000       0.1000000        10.00000        changethis   1.0   0.0
rchpp008      log    factor      1.000000       0.1000000        10.00000        changethis   1.0   0.0
kx1pp009      log    factor      1.000000       0.1000000        10.00000        changethis   1.0   0.0
kx2pp009      log    factor      1.000000       0.1000000        10.00000        changethis   1.0   0.0
kx3pp009      log    factor      1.000000       0.1000000        10.00000        changethis   1.0   0.0
rchpp009      log    factor      1.000000       0.1000000        10.00000        changethis   1.0   0.0
kx1pp010      log    factor      1.000000       0.1000000        10.00000        changethis   1.0   0.0
kx2pp010      log    factor      1.000000       0.1000000        10.00000        changethis   1.0   0.0
kx3pp010      log    factor      1.000000       0.1000000        10.00000        changethis   1.0   0.0
rchpp010      log    factor      1.000000       0.1000000        10.00000        changethis   1.0   0.0
kx1pp011      log    factor      1.000000       0.1000000        10.00000        changethis   1.0   0.0
kx2pp011      log    factor      1.000000       0.1000000        10.00000        changethis   1.0   0.0
kx3pp011      log    factor      1.000000       0.1000000        10.00000        changethis   1.0   0.0
rchpp011      log    factor      1.000000       0.1000000        10.00000        changethis   1.0   0.0
kx1pp012      log    factor      1.000000       0.1000000        10.00000        changethis   1.0   0.0
kx2pp012      log    factor      1.000000       0.1000000        10.00000        changethis   1.0   0.0
kx3pp012      log    factor      1.000000       0.1000000        10.00000        changethis   1.0   0.0
rchpp012      log    factor      1.000000       0.1000000        10.00000        changethis   1.0   0.0
kx1pp013      log    factor      1.000000       0.1000000        10.00000        changethis   1.0   0.0
kx2pp013      log    factor      1.000000       0.1000000        10.00000        changethis   1.0   0.0
kx3pp013      log    factor      1.000000       0.1000000        10.00000        changethis   1.0   0.0
rchpp013      log    factor      1.000000       0.1000000        10.00000        changethis   1.0   0.0
kx1pp014      log    factor      1.000000       0.1000000        10.00000        changethis   1.0   0.0
kx2pp014      log    factor      1.000000       0.1000000        10.00000        changethis   1.0   0.0
kx3pp014      log    factor      1.000000       0.1000000        10.00000        changethis   1.0   0.0
rchpp014      log    factor      1.000000       0.1000000        10.00000        changethis   1.0   0.0
kx1pp015      log    factor      1.000000       0.1000000        10.00000        changethis   1.0   0.0
kx2pp015      log    factor      1.000000       0.1000000        10.00000        changethis   1.0   0.0
kx3pp015      log    factor      1.000000       0.1000000        10.00000        changethis   1.0   0.0
rchpp015      log    factor      1.000000       0.1000000        10.00000        changethis   1.0   0.0
kx1pp016      log    factor      1.000000       0.1000000        10.00000        changethis   1.0   0.0
kx2pp016      log    factor      1.000000       0.1000000        10.00000        changethis   1.0   0.0
kx3pp016      log    factor      1.000000       0.1000000        10.00000        changethis   1.0   0.0
rchpp016      log    factor      1.000000       0.1000000        10.00000        changethis   1.0   0.0
kx1pp017      log    factor      1.000000       0.1000000        10.00000        changethis   1.0   0.0
kx2pp017      log    factor      1.000000       0.1000000        10.00000        changethis   1.0   0.0
kx3pp017      log    factor      1.000000       0.1000000        10.00000        changethis   1.0   0.0
rchpp017      log    factor      1.000000       0.1000000        10.00000        changethis   1.0   0.0
kx1pp018      log    factor      1.000000       0.1000000        10.00000        changethis   1.0   0.0
kx2pp018      log    factor      1.000000       0.1000000        10.00000        changethis   1.0   0.0
kx3pp018      log    factor      1.000000       0.1000000        10.00000        changethis   1.0   0.0
rchpp018      log    factor      1.000000       0.1000000        10.00000        changethis   1.0   0.0
kx1pp019      log    factor      1.000000       0.1000000        10.00000        changethis   1.0   0.0
kx2pp019      log    factor      1.000000       0.1000000        10.00000        changethis   1.0   0.0
kx3pp019      log    factor      1.000000       0.1000000        10.00000        changethis   1.0   0.0
rchpp019      log    factor      1.000000       0.1000000        10.00000        changethis   1.0   0.0
kx1pp020      log    factor      1.000000       0.1000000        10.00000        changethis   1.0   0.0
kx2pp020      log    factor      1.000000       0.1000000        10.00000        changethis   1.0   0.0
kx3pp020      log    factor      1.000000       0.1000000        10.00000        changethis   1.0   0.0
rchpp020      log    factor      1.000000       0.1000000        10.00000        changethis   1.0   0.0
kx1pp021      log    factor      1.000000       0.1000000        10.00000        changethis   1.0   0.0
kx2pp021      log    factor      1.000000       0.1000000        10.00000        changethis   1.0   0.0
kx3pp021      log    factor      1.000000       0.1000000        10.00000        changethis   1.0   0.0
rchpp021      log    factor      1.000000       0.1000000        10.00000        changethis   1.0   0.0
kx1pp022      log    factor      1.000000       0.1000000        10.00000        changethis   1.0   0.0
kx2pp022      log    factor      1.000000       0.1000000        10.00000        changethis   1.0   0.0
kx3pp022      log    factor      1.000000       0.1000000        10.00000        changethis   1.0   0.0
rchpp022      log    factor      1.000000       0.1000000        10.00000        changethis   1.0   0.0
kx1pp023      log    factor      1.000000       0.1000000        10.00000        changethis   1.0   0.0
kx2pp023      log    factor      1.000000       0.1000000        10.00000        changethis   1.0   0.0
kx3pp023      log    factor      1.000000       0.1000000        10.00000        changethis   1.0   0.0
rchpp023      log    factor      1.000000       0.1000000        10.00000        changethis   1.0   0.0
kx1pp024      log    factor      1.000000       0.1000000        10.00000        changethis   1.0   0.0
kx2pp024      log    factor      1.000000       0.1000000        10.00000        changethis   1.0   0.0
kx3pp024      log    factor      1.000000       0.1000000        10.00000        changethis   1.0   0.0
rchpp024      log    factor      1.000000       0.1000000        10.00000        changethis   1.0   0.0
kx1pp025      log    factor      1.000000       0.1000000        10.00000        changethis   1.0   0.0
kx2pp025      log    factor      1.000000       0.1000000        10.00000        changethis   1.0   0.0
kx3pp025      log    factor      1.000000       0.1000000        10.00000        changethis   1.0   0.0
rchpp025      log    factor      1.000000       0.1000000        10.00000        changethis   1.0   0.0
kx1pp026      log    factor      1.000000       0.1000000        10.00000        changethis   1.0   0.0
kx2pp026      log    factor      1.000000       0.1000000        10.00000        changethis   1.0   0.0
kx3pp026      log    factor      1.000000       0.1000000        10.00000        changethis   1.0   0.0
rchpp026      log    factor      1.000000       0.1000000        10.00000        changethis   1.0   0.0
kx1pp027      log    factor      1.000000       0.1000000        10.00000        changethis   1.0   0.0
kx2pp027      log    factor      1.000000       0.1000000        10.00000        changethis   1.0   0.0
kx3pp027      log    factor      1.000000       0.1000000        10.00000        changethis   1.0   0.0
rchpp027      log    factor      1.000000       0.1000000        10.00000        changethis   1.0   0.0
kx1pp028      log    factor      1.000000       0.1000000        10.00000        changethis   1.0   0.0
kx2pp028      log    factor      1.000000       0.1000000        10.00000        changethis   1.0   0.0
kx3pp028      log    factor      1.000000       0.1000000        10.00000        changethis   1.0   0.0
rchpp028      log    factor      1.000000       0.1000000        10.00000        changethis   1.0   0.0
kx1pp029      log    factor      1.000000       0.1000000        10.00000        changethis   1.0   0.0
kx2pp029      log    factor      1.000000       0.1000000        10.00000        changethis   1.0   0.0
kx3pp029      log    factor      1.000000       0.1000000        10.00000        changethis   1.0   0.0
rchpp029      log    factor      1.000000       0.1000000        10.00000        changethis   1.0   0.0
kx1pp030      log    factor      1.000000       0.1000000        10.00000        changethis   1.0   0.0
kx2pp030      log    factor      1.000000       0.1000000        10.00000        changethis   1.0   0.0
kx3pp030      log    factor      1.000000       0.1000000        10.00000        changethis   1.0   0.0
rchpp030      log    factor      1.000000       0.1000000        10.00000        changethis   1.0   0.0
kx1pp031      log    factor      1.000000       0.1000000        10.00000        changethis   1.0   0.0
kx2pp031      log    factor      1.000000       0.1000000        10.00000        changethis   1.0   0.0
kx3pp031      log    factor      1.000000       0.1000000        10.00000        changethis   1.0   0.0
rchpp031      log    factor      1.000000       0.1000000        10.00000        changethis   1.0   0.0
kx1pp032      log    factor      1.000000       0.1000000        10.00000        changethis   1.0   0.0
kx2pp032      log    factor      1.000000       0.1000000        10.00000        changethis   1.0   0.0
kx3pp032      log    factor      1.000000       0.1000000        10.00000        changethis   1.0   0.0
rchpp032      log    factor      1.000000       0.1000000        10.00000        changethis   1.0   0.0
kx1pp033      log    factor      1.000000       0.1000000        10.00000        changethis   1.0   0.0
kx2pp033      log    factor      1.000000       0.1000000        10.00000        changethis   1.0   0.0
kx3pp033      log    factor      1.000000       0.1000000        10.00000        changethis   1.0   0.0
rchpp033      log    factor      1.000000       0.1000000        10.00000        changethis   1.0   0.0
kx1pp034      log    factor      1.000000       0.1000000        10.00000        changethis   1.0   0.0
kx2pp034      log    factor      1.000000       0.1000000        10.00000        changethis   1.0   0.0
kx3pp034      log    factor      1.000000       0.1000000        10.00000        changethis   1.0   0.0
rchpp034      log    factor      1.000000       0.1000000        10.00000        changethis   1.0   0.0
kx1pp035      log    factor      1.000000       0.1000000        10.00000        changethis   1.0   0.0
kx2pp035      log    factor      1.000000       0.1000000        10.00000        changethis   1.0   0.0
kx3pp035      log    factor      1.000000       0.1000000        10.00000        changethis   1.0   0.0
rchpp035      log    factor      1.000000       0.1000000        10.00000        changethis   1.0   0.0
kx1pp036      log    factor      1.000000       0.1000000        10.00000        changethis   1.0   0.0
kx2pp036      log    factor      1.000000       0.1000000        10.00000        changethis   1.0   0.0
kx3pp036      log    factor      1.000000       0.1000000        10.00000        changethis   1.0   0.0
rchpp036      log    factor      1.000000       0.1000000        10.00000        changethis   1.0   0.0
kx1pp037      log    factor      1.000000       0.1000000        10.00000        changethis   1.0   0.0
kx2pp037      log    factor      1.000000       0.1000000        10.00000        changethis   1.0   0.0
kx3pp037      log    factor      1.000000       0.1000000        10.00000        changethis   1.0   0.0
rchpp037      log    factor      1.000000       0.1000000        10.00000        changethis   1.0   0.0
kx1pp038      log    factor      1.000000       0.1000000        10.00000        changethis   1.0   0.0
kx2pp038      log    factor      1.000000       0.1000000        10.00000        changethis   1.0   0.0
kx3pp038      log    factor      1.000000       0.1000000        10.00000        changethis   1.0   0.0
rchpp038      log    factor      1.000000       0.1000000        10.00000        changethis   1.0   0.0
kx1pp039      log    factor      1.000000       0.1000000        10.00000        changethis   1.0   0.0
kx2pp039      log    factor      1.000000       0.1000000        10.00000        changethis   1.0   0.0
kx3pp039      log    factor      1.000000       0.1000000        10.00000        changethis   1.0   0.0
rchpp039      log    factor      1.000000       0.1000000        10.00000        changethis   1.0   0.0
kx1pp040      log    factor      1.000000       0.1000000        10.00000        changethis   1.0   0.0
kx2pp040      log    factor      1.000000       0.1000000        10.00000        changethis   1.0   0.0
kx3pp040      log    factor      1.000000       0.1000000        10.00000        changethis   1.0   0.0
rchpp040      log    factor      1.000000       0.1000000        10.00000        changethis   1.0   0.0
kx1pp041      log    factor      1.000000       0.1000000        10.00000        changethis   1.0   0.0
kx2pp041      log    factor      1.000000       0.1000000        10.00000        changethis   1.0   0.0
kx3pp041      log    factor      1.000000       0.1000000        10.00000        changethis   1.0   0.0
rchpp041      log    factor      1.000000       0.1000000        10.00000        changethis   1.0   0.0
kx1pp042      log    factor      1.000000       0.1000000        10.00000        changethis   1.0   0.0
kx2pp042      log    factor      1.000000       0.1000000        10.00000        changethis   1.0   0.0
kx3pp042      log    factor      1.000000       0.1000000        10.00000        changethis   1.0   0.0
rchpp042      log    factor      1.000000       0.1000000        10.00000        changethis   1.0   0.0
kx1pp043      log    factor      1.000000       0.1000000        10.00000        changethis   1.0   0.0
kx2pp043      log    factor      1.000000       0.1000000        10.00000        changethis   1.0   0.0
kx3pp043      log    factor      1.000000       0.1000000        10.00000        changethis   1.0   0.0
rchpp043      log    factor      1.000000       0.1000000        10.00000        changethis   1.0   0.0
kx1pp044      log    factor      1.000000       0.1000000        10.00000        changethis   1.0   0.0
kx2pp044      log    factor      1.000000       0.1000000        10.00000        changethis   1.0   0.0
kx3pp044      log    factor      1.000000       0.1000000        10.00000        changethis   1.0   0.0
rchpp044      log    factor      1.000000       0.1000000        10.00000        changethis   1.0   0.0
kx1pp045      log    factor      1.000000       0.1000000        10.00000        changethis   1.0   0.0
kx2pp045      log    factor      1.000000       0.1000000        10.00000        changethis   1.0   0.0
kx3pp045      log    factor      1.000000       0.1000000        10.00000        changethis   1.0   0.0
rchpp045      log    factor      1.000000       0.1000000        10.00000        changethis   1.0   0.0
kx1pp046      log    factor      1.000000       0.1000000        10.00000        changethis   1.0   0.0
kx2pp046      log    factor      1.000000       0.1000000        10.00000        changethis   1.0   0.0
kx3pp046      log    factor      1.000000       0.1000000        10.00000        changethis   1.0   0.0
rchpp046      log    factor      1.000000       0.1000000        10.00000        changethis   1.0   0.0
kx1pp047      log    factor      1.000000       0.1000000        10.00000        changethis   1.0   0.0
kx2pp047      log    factor      1.000000       0.1000000        10.00000        changethis   1.0   0.0
kx3pp047      log    factor      1.000000       0.1000000        10.00000        changethis   1.0   0.0
rchpp047      log    factor      1.000000       0.1000000        10.00000        changethis   1.0   0.0
kx1pp048      log    factor      1.000000       0.1000000        10.00000        changethis   1.0   0.0
kx2pp048      log    factor      1.000000       0.1000000        10.00000        changethis   1.0   0.0
kx3pp048      log    factor      1.000000       0.1000000        10.00000        changethis   1.0   0.0
rchpp048      log    factor      1.000000       0.1000000        10.00000        changethis   1.0   0.0
kx1pp049      log    factor      1.000000       0.1000000        10.00000        changethis   1.0   0.0
kx2pp049      log    factor      1.000000       0.1000000        10.00000        changethis   1.0   0.0
kx3pp049      log    factor      1.000000       0.1000000        10.00000        changethis   1.0   0.0
rchpp049      log    factor      1.000000       0.1000000        10.00000        changethis   1.0   0.0
kx1pp050      log    factor      1.000000       0.1000000        10.00000        changethis   1.0   0.0
kx2pp050      log    factor      1.000000       0.1000000        10.00000        changethis   1.0   0.0
kx3pp050      log    factor      1.000000       0.1000000        10.00000        changethis   1.0   0.0
rchpp050      log    factor      1.000000       0.1000000        10.00000        changethis   1.0   0.0
kx1pp051      log    factor      1.000000       0.1000000        10.00000        changethis   1.0   0.0
kx2pp051      log    factor      1.000000       0.1000000        10.00000        changethis   1.0   0.0
kx3pp051      log    factor      1.000000       0.1000000        10.00000        changethis   1.0   0.0
rchpp051      log    factor      1.000000       0.1000000        10.00000        changethis   1.0   0.0
kx1pp052      log    factor      1.000000       0.1000000        10.00000        changethis   1.0   0.0
kx2pp052      log    factor      1.000000       0.1000000        10.00000        changethis   1.0   0.0
kx3pp052      log    factor      1.000000       0.1000000        10.00000        changethis   1.0   0.0
rchpp052      log    factor      1.000000       0.1000000        10.00000        changethis   1.0   0.0
kx1pp053      log    factor      1.000000       0.1000000        10.00000        changethis   1.0   0.0
kx2pp053      log    factor      1.000000       0.1000000        10.00000        changethis   1.0   0.0
kx3pp053      log    factor      1.000000       0.1000000        10.00000        changethis   1.0   0.0
rchpp053      log    factor      1.000000       0.1000000        10.00000        changethis   1.0   0.0
kx1pp054      log    factor      1.000000       0.1000000        10.00000        changethis   1.0   0.0
kx2pp054      log    factor      1.000000       0.1000000        10.00000        changethis   1.0   0.0
kx3pp054      log    factor      1.000000       0.1000000        10.00000        changethis   1.0   0.0
rchpp054      log    factor      1.000000       0.1000000        10.00000        changethis   1.0   0.0
kx1pp055      log    factor      1.000000       0.1000000        10.00000        changethis   1.0   0.0
kx2pp055      log    factor      1.000000       0.1000000        10.00000        changethis   1.0   0.0
kx3pp055      log    factor      1.000000       0.1000000        10.00000        changethis   1.0   0.0
rchpp055      log    factor      1.000000       0.1000000        10.00000        changethis   1.0   0.0
kx1pp056      log    factor      1.000000       0.1000000        10.00000        changethis   1.0   0.0
kx2pp056      log    factor      1.000000       0.1000000        10.00000        changethis   1.0   0.0
kx3pp056      log    factor      1.000000       0.1000000        10.00000        changethis   1.0   0.0
rchpp056      log    factor      1.000000       0.1000000        10.00000        changethis   1.0   0.0
kx1pp057      log    factor      1.000000       0.1000000        10.00000        changethis   1.0   0.0
kx2pp057      log    factor      1.000000       0.1000000        10.00000        changethis   1.0   0.0
kx3pp057      log    factor      1.000000       0.1000000        10.00000        changethis   1.0   0.0
rchpp057      log    factor      1.000000       0.1000000        10.00000        changethis   1.0   0.0
kx1pp058      log    factor      1.000000       0.1000000        10.00000        changethis   1.0   0.0
kx2pp058      log    factor      1.000000       0.1000000        10.00000        changethis   1.0   0.0
kx3pp058      log    factor      1.000000       0.1000000        10.00000        changethis   1.0   0.0
rchpp058      log    factor      1.000000       0.1000000        10.00000        changethis   1.0   0.0
kx1pp059      log    factor      1.000000       0.1000000        10.00000        changethis   1.0   0.0
kx2pp059      log    factor      1.000000       0.1000000        10.00000        changethis   1.0   0.0
kx3pp059      log    factor      1.000000       0.1000000        10.00000        changethis   1.0   0.0
rchpp059      log    factor      1.000000       0.1000000        10.00000        changethis   1.0   0.0
kx1pp060      log    factor      1.000000       0.1000000        10.00000        changethis   1.0   0.0
kx2pp060      log    factor      1.000000       0.1000000        10.00000        changethis   1.0   0.0
kx3pp060      log    factor      1.000000       0.1000000        10.00000        changethis   1.0   0.0
rchpp060      log    factor      1.000000       0.1000000        10.00000        changethis   1.0   0.0
kx1pp061      log    factor      1.000000       0.1000000        10.00000        changethis   1.0   0.0
kx2pp061      log    factor      1.000000       0.1000000        10.00000        changethis   1.0   0.0
kx3pp061      log    factor      1.000000       0.1000000        10.00000        changethis   1.0   0.0
rchpp061      log    factor      1.000000       0.1000000        10.00000        changethis   1.0   0.0
kx1pp062      log    factor      1.000000       0.1000000        10.00000        changethis   1.0   0.0
kx2pp062      log    factor      1.000000       0.1000000        10.00000        changethis   1.0   0.0
kx3pp062      log    factor      1.000000       0.1000000        10.00000        changethis   1.0   0.0
rchpp062      log    factor      1.000000       0.1000000        10.00000        changethis   1.0   0.0
kx1pp063      log    factor      1.000000       0.1000000        10.00000        changethis   1.0   0.0
kx2pp063      log    factor      1.000000       0.1000000        10.00000        changethis   1.0   0.0
kx3pp063      log    factor      1.000000       0.1000000        10.00000        changethis   1.0   0.0
rchpp063      log    factor      1.000000       0.1000000        10.00000        changethis   1.0   0.0
kx1pp064      log    factor      1.000000       0.1000000        10.00000        changethis   1.0   0.0
kx2pp064      log    factor      1.000000       0.1000000        10.00000        changethis   1.0   0.0
kx3pp064      log    factor      1.000000       0.1000000        10.00000        changethis   1.0   0.0
rchpp064      log    factor      1.000000       0.1000000        10.00000        changethis   1.0   0.0
kx1pp065      log    factor      1.000000       0.1000000        10.00000        changethis   1.0   0.0
kx2pp065      log    factor      1.000000       0.1000000        10.00000        changethis   1.0   0.0
kx3pp065      log    factor      1.000000       0.1000000        10.00000        changethis   1.0   0.0
rchpp065      log    factor      1.000000       0.1000000        10.00000        changethis   1.0   0.0
kx1pp066      log    factor      1.000000       0.1000000        10.00000        changethis   1.0   0.0
kx2pp066      log    factor      1.000000       0.1000000        10.00000        changethis   1.0   0.0
kx3pp066      log    factor      1.000000       0.1000000        10.00000        changethis   1.0   0.0
rchpp066      log    factor      1.000000       0.1000000        10.00000        changethis   1.0   0.0
kx1pp067      log    factor      1.000000       0.1000000        10.00000        changethis   1.0   0.0
kx2pp067      log    factor      1.000000       0.1000000        10.00000        changethis   1.0   0.0
kx3pp067      log    factor      1.000000       0.1000000        10.00000        changethis   1.0   0.0
rchpp067      log    factor      1.000000       0.1000000        10.00000        changethis   1.0   0.0
kx1pp068      log    factor      1.000000       0.1000000        10.00000        changethis   1.0   0.0
kx2pp068      log    factor      1.000000       0.1000000        10.00000        changethis   1.0   0.0
kx3pp068      log    factor      1.000000       0.1000000        10.00000        changethis   1.0   0.0
rchpp068      log    factor      1.000000       0.1000000        10.00000        changethis   1.0   0.0
kx1pp069      log    factor      1.000000       0.1000000        10.00000        changethis   1.0   0.0
kx2pp069      log    factor      1.000000       0.1000000        10.00000        changethis   1.0   0.0
kx3pp069      log    factor      1.000000       0.1000000        10.00000        changethis   1.0   0.0
rchpp069      log    factor      1.000000       0.1000000        10.00000        changethis   1.0   0.0
kx1pp070      log    factor      1.000000       0.1000000        10.00000        changethis   1.0   0.0
kx2pp070      log    factor      1.000000       0.1000000        10.00000        changethis   1.0   0.0
kx3pp070      log    factor      1.000000       0.1000000        10.00000        changethis   1.0   0.0
rchpp070      log    factor      1.000000       0.1000000        10.00000        changethis   1.0   0.0
kx1pp071      log    factor      1.000000       0.1000000        10.00000        changethis   1.0   0.0
kx2pp071      log    factor      1.000000       0.1000000        10.00000        changethis   1.0   0.0
kx3pp071      log    factor      1.000000       0.1000000        10.00000        changethis   1.0   0.0