# MODFLOW-USGs River Package
 1783 50
 1783 0    Stress Period 1
 19684   2.5272817E+02       5.3289452E+01       2.5172817E+02
 20004   2.5073567E+02       3.3313555E+01       2.4973567E+02
 33796   2.3582947E+02       1.1210671E+05       2.3482947E+02
 33797   2.3576807E+02       4.2616461E+05       2.3476807E+02
 33798   2.3572517E+02       4.2030540E+05       2.3472517E+02
 33799   2.3568727E+02       4.0101496E+05       2.3468727E+02
 33800   2.3564947E+02       3.2935839E+05       2.3464947E+02
 33801   2.3561167E+02       2.2278779E+05       2.3461167E+02
 33802   2.3557917E+02       1.4312910E+05       2.3457917E+02
 33803   2.3557667E+02       8.8497329E+04       2.3457667E+02
 33804   2.3557417E+02       5.9744507E+04       2.3457417E+02
 33805   2.3557177E+02       5.4830647E+04       2.3457177E+02
 33806   2.3556947E+02       1.9859272E+04       2.3456947E+02
 34115   2.3584197E+02       6.9537009E+05       2.3484197E+02
 34116   2.3579757E+02       4.8548839E+05       2.3479757E+02
 34126   2.3556867E+02       4.0747570E+04       2.3456867E+02
 34127   2.3556637E+02       7.4288868E+04       2.3456637E+02
 34128   2.3960667E+02       5.0668845E+01       2.3860667E+02
 34434   2.3687147E+02       9.1735116E+05       2.3587147E+02
 34435   2.4037957E+02       3.1300160E+05       2.3937957E+02
 34448   2.3551907E+02       7.2154323E+04       2.3451907E+02
 34753   2.3609107E+02       5.9343392E+05       2.3509107E+02
 34754   2.3965017E+02       1.7790222E+05       2.3865017E+02
 35072   2.3606917E+02       1.9008976E+05       2.3506917E+02
 35073   2.3600037E+02       3.8876122E+05       2.3500037E+02
 35391   2.3822927E+02       1.2849200E+05       2.3722927E+02
 35392   2.3774437E+02       5.4280140E+05       2.3674437E+02
 35710   2.4005397E+02       7.4261782E+04       2.3905397E+02
 35711   2.3889307E+02       3.3305291E+05       2.3789307E+02
 36030   2.4034567E+02       1.0631296E+05       2.3934567E+02
 21613   2.4235647E+02       6.3863136E+00       2.4135647E+02
 39799   2.5052807E+02       2.5162742E+02       2.4952807E+02
 40119   2.5533757E+02       3.9834231E+01       2.5433757E+02
 14953   2.5446137E+02       2.3581988E+00       2.5346137E+02
 15270   2.5292537E+02       2.5973918E+00       2.5192537E+02
 15271   2.5371307E+02       7.8437787E+00       2.5271307E+02
 15272   2.5422387E+02       7.0973378E+00       2.5322387E+02
 15273   2.5389097E+02       1.5705627E+00       2.5289097E+02
 49271   2.3120527E+02       2.1754055E+04       2.3020527E+02
 49591   2.3120447E+02       2.1576282E+01       2.3020447E+02
 577     2.7513157E+02       2.2643422E+00       2.7413157E+02
 40114   2.5196477E+02       4.9219120E+02       2.5096477E+02
 40116   2.5271017E+02       5.3757770E+02       2.5171017E+02
 40117   2.5551767E+02       6.0717998E+02       2.5451767E+02
 40118   2.5609647E+02       6.5052403E+02       2.5509647E+02
 40119   2.5533757E+02       3.9834231E+01       2.5433757E+02
 40433   2.5255327E+02       1.2125282E+02       2.5155327E+02
 40434   2.5250037E+02       6.5270471E+02       2.5150037E+02
 40435   2.5236757E+02       6.6589895E+02       2.5136757E+02
 40436   2.5211907E+02       2.2468365E+02       2.5111907E+02
 40752   2.5249767E+02       4.3865234E+02       2.5149767E+02
 40753   2.5257587E+02       3.3192099E+02       2.5157587E+02
 41071   2.5234897E+02       3.9852400E+01       2.5134897E+02
 41072   2.5299307E+02       3.8379939E+02       2.5199307E+02
 41391   2.5258777E+02       5.2295009E+02       2.5158777E+02
 41708   2.5286657E+02       1.9636133E+02       2.5186657E+02
 41709   2.5272717E+02       3.5921734E+02       2.5172717E+02
 41710   2.5279777E+02       3.4728151E+02       2.5179777E+02
 42026   2.5337317E+02       5.2871474E+01       2.5237317E+02
 42027   2.5289597E+02       3.8209327E+02       2.5189597E+02
 42028   2.5346987E+02       1.9013790E+02       2.5246987E+02
 42345   2.5336317E+02       2.9652196E+02       2.5236317E+02
 42346   2.5326607E+02       3.2962611E+02       2.5226607E+02
 42663   2.5354287E+02       1.6345592E+02       2.5254287E+02
 42664   2.5341407E+02       3.9825084E+02       2.5241407E+02
 42665   2.5325527E+02       9.1056497E+01       2.5225527E+02
 42981   2.5360447E+02       3.6816945E+02       2.5260447E+02
 42982   2.5352647E+02       3.8337250E+02       2.5252647E+02
 42983   2.5345327E+02       2.3701134E+02       2.5245327E+02
 43253   2.6238867E+02       6.7639917E+01       2.6138867E+02
 43254   2.6271897E+02       6.9265222E+02       2.6171897E+02
 43255   2.6285227E+02       2.8680178E+02       2.6185227E+02
 43299   2.5384697E+02       1.2114546E+02       2.5284697E+02
 43300   2.5354397E+02       5.1423781E+02       2.5254397E+02
 43301   2.5370697E+02       1.0892893E+02       2.5270697E+02
 43572   2.6234627E+02       2.9769006E+02       2.6134627E+02
 43573   2.6165077E+02       7.7563593E+02       2.6065077E+02
 43575   2.6130617E+02       4.3051035E+02       2.6030617E+02
 43576   2.6570637E+02       7.4721083E+02       2.6470637E+02
 43577   2.6467477E+02       7.4593056E+02       2.6367477E+02
 43578   2.6248477E+02       7.6747815E+02       2.6148477E+02
 43579   2.6185797E+02       8.4370630E+02       2.6085797E+02
 43580   2.6190287E+02       1.2527042E+02       2.6090287E+02
 43618   2.5411657E+02       4.0906016E+02       2.5311657E+02
 43619   2.5385147E+02       4.2782149E+02       2.5285147E+02
 43891   2.6297437E+02       5.5432716E+02       2.6197437E+02
 43892   2.6238617E+02       5.6209764E+02       2.6138617E+02
 43900   2.6172217E+02       9.9583491E+02       2.6072217E+02
 43901   2.6101237E+02       1.0928468E+02       2.6001237E+02
 43937   2.5372617E+02       6.4551477E+02       2.5272617E+02
 43938   2.5362267E+02       1.6721473E+02       2.5262267E+02
 44210   2.6342797E+02       5.9776559E+02       2.6242797E+02
 44211   2.6330867E+02       3.7960199E+02       2.6230867E+02
 44221   2.6085727E+02       8.5341474E+02       2.5985727E+02
 44222   2.6121297E+02       8.3753687E+02       2.6021297E+02
 44223   2.6098197E+02       4.7700077E+02       2.5998197E+02
 44256   2.5402287E+02       6.6670613E+02       2.5302287E+02
 44529   2.6321197E+02       5.1603949E+02       2.6221197E+02
 44530   2.6368667E+02       6.8668661E+02       2.6268667E+02
 44543   2.6051177E+02       8.9595482E+02       2.5951177E+02
 44575   2.5410757E+02       4.7027067E+02       2.5310757E+02
 44576   2.5392957E+02       1.9407738E+02       2.5292957E+02
 44848   2.6937407E+02       6.2879346E+02       2.6837407E+02
 44849   2.6406557E+02       8.2741185E+02       2.6306557E+02
 44863   2.5950357E+02       8.0072137E+02       2.5850357E+02
 44894   2.5419677E+02       2.3434694E+02       2.5319677E+02
 44895   2.5400677E+02       4.5917640E+02       2.5300677E+02
 45167   2.6864457E+02       1.3329812E+03       2.6764457E+02
 45168   2.7138257E+02       9.7887892E+02       2.7038257E+02
 45183   2.5941487E+02       2.5322341E+02       2.5841487E+02
 45184   2.6111847E+02       5.9502320E+02       2.6011847E+02
 45213   2.5442777E+02       1.6117982E+02       2.5342777E+02
 45214   2.5438477E+02       5.5950554E+02       2.5338477E+02
 45485   2.6779577E+02       2.6175895E+03       2.6679577E+02
 45486   2.6892987E+02       2.1811737E+03       2.6792987E+02
 45487   2.6633437E+02       4.1994763E+02       2.6533437E+02
 45504   2.6077667E+02       9.5917798E+02       2.5977667E+02
 45532   2.5506867E+02       1.8665235E+02       2.5406867E+02
 45533   2.5409767E+02       5.5228936E+02       2.5309767E+02
 45803   2.6712677E+02       2.9871187E+03       2.6612677E+02
 45804   2.6721797E+02       3.8378611E+03       2.6621797E+02
 45825   2.6031627E+02       9.5695216E+02       2.5931627E+02
 45851   2.5808577E+02       4.1303946E+02       2.5708577E+02
 45852   2.5417197E+02       3.8754572E+02       2.5317197E+02
 46122   2.6783967E+02       5.5685737E+03       2.6683967E+02
 46123   2.6739147E+02       1.8945984E+03       2.6639147E+02
 46145   2.5987447E+02       3.4695060E+02       2.5887447E+02
 46146   2.5906367E+02       6.8704540E+02       2.5806367E+02
 46169   2.5592587E+02       3.2691099E+01       2.5492587E+02
 46170   2.5574007E+02       4.6022106E+02       2.5474007E+02
 46171   2.5589087E+02       8.3726001E+01       2.5489087E+02
 46441   2.6985147E+02       5.1518206E+03       2.6885147E+02
 46442   2.6968787E+02       1.7081035E+03       2.6868787E+02
 46466   2.5942307E+02       3.8515107E+02       2.5842307E+02
 46467   2.5891247E+02       8.9099589E+02       2.5791247E+02
 46468   2.5917437E+02       9.8525069E+01       2.5817437E+02
 46488   2.5658027E+02       9.9606775E+01       2.5558027E+02
 46489   2.5593067E+02       3.4574404E+02       2.5493067E+02
 46760   2.7977657E+02       6.4004864E+02       2.7877657E+02
 46761   2.7522557E+02       5.9235153E+03       2.7422557E+02
 46788   2.5801657E+02       7.8162574E+02       2.5701657E+02
 46789   2.5892347E+02       5.6356671E+02       2.5792347E+02
 46792   2.5801987E+02       6.5963236E+02       2.5701987E+02
 46793   2.5786287E+02       8.3812649E+02       2.5686287E+02
 46794   2.5712537E+02       7.8988978E+02       2.5612537E+02
 46795   2.5846737E+02       7.1758814E+02       2.5746737E+02
 46796   2.5711407E+02       4.2864198E+02       2.5611407E+02
 46807   2.5634897E+02       1.3889344E+02       2.5534897E+02
 46808   2.5586077E+02       2.1200683E+02       2.5486077E+02
 47080   2.7676827E+02       6.3072694E+03       2.7576827E+02
 47109   2.5810227E+02       5.1540677E+02       2.5710227E+02
 47110   2.5686907E+02       8.4250562E+02       2.5586907E+02
 47111   2.5714067E+02       8.8783158E+02       2.5614067E+02
 47112   2.5784157E+02       1.9286181E+02       2.5684157E+02
 47116   2.5695267E+02       2.1972488E+02       2.5595267E+02
 47117   2.5778027E+02       6.4703915E+02       2.5678027E+02
 47126   2.5597167E+02       1.6104952E+02       2.5497167E+02
 47127   2.5578587E+02       1.1826323E+02       2.5478587E+02
 47438   2.5824217E+02       4.7030036E+02       2.5724217E+02
 47445   2.5588717E+02       1.7778688E+02       2.5488717E+02
 47446   2.5588317E+02       5.4617592E+01       2.5488317E+02
 47759   2.5714787E+02       3.1860513E+02       2.5614787E+02
 47760   2.5723217E+02       5.2510201E+01       2.5623217E+02
 47763   2.5618757E+02       8.8347627E+01       2.5518757E+02
 47764   2.5590777E+02       1.5844080E+02       2.5490777E+02
 48080   2.5687057E+02       1.6266548E+02       2.5587057E+02
 48081   2.5651737E+02       1.5963701E+02       2.5551737E+02
 48082   2.5672747E+02       1.4608668E+02       2.5572747E+02
 48083   2.5588757E+02       5.7973694E+01       2.5488757E+02
 40119   2.5533757E+02       3.9834231E+01       2.5433757E+02
 40439   2.5193487E+02       1.0843861E+02       2.5093487E+02
 40254   2.3313157E+02       1.7730614E+01       2.3213157E+02
 40255   2.3291457E+02       6.1415128E+04       2.3191457E+02
 9357    2.4990067E+02       1.0150232E+03       2.4890067E+02
 6482    2.5484537E+02       3.3867439E+02       2.5384537E+02
 6483    2.5486997E+02       7.2494559E+02       2.5386997E+02
 6484    2.5525367E+02       2.5271802E+02       2.5425367E+02
 6801    2.5495457E+02       9.2055801E+02       2.5395457E+02
 6802    2.5667047E+02       6.2998068E+02       2.5567047E+02
 7119    2.5462697E+02       3.3295827E+02       2.5362697E+02
 7120    2.5311657E+02       1.0049355E+03       2.5211657E+02
 7121    2.5408587E+02       1.3125221E+02       2.5308587E+02
 7438    2.5275457E+02       6.0798334E+02       2.5175457E+02
 7439    2.5235257E+02       5.0490470E+02       2.5135257E+02
 7757    2.5247107E+02       4.4005757E+02       2.5147107E+02
 7758    2.5587877E+02       9.2247009E+01       2.5487877E+02
 8077    2.5245977E+02       3.8962180E+02       2.5145977E+02
 8397    2.5155547E+02       3.2456913E+02       2.5055547E+02
 8717    2.5052787E+02       3.9707759E+01       2.4952787E+02
 8718    2.5371887E+02       9.0961193E+01       2.5271887E+02
 8718    2.5371887E+02       9.0961193E+01       2.5271887E+02
 9037    2.5175537E+02       1.6320399E+02       2.5075537E+02
 9038    2.5099697E+02       8.5720486E+01       2.4999697E+02
 9357    2.4990067E+02       1.0150232E+03       2.4890067E+02
 14286   2.5068017E+02       7.0260448E+01       2.4968017E+02
 14287   2.5077587E+02       2.8108043E+02       2.4977587E+02
 14288   2.5076437E+02       3.6069783E+01       2.4976437E+02
 14600   2.4948567E+02       1.4996788E+02       2.4848567E+02
 14601   2.4939617E+02       2.5022357E+02       2.4839617E+02
 14602   2.5329577E+02       2.6554075E+02       2.5229577E+02
 14603   2.5333317E+02       2.7377319E+02       2.5233317E+02
 14604   2.4975257E+02       2.8225016E+02       2.4875257E+02
 14605   2.5012377E+02       2.8189549E+02       2.4912377E+02
 14606   2.5024007E+02       2.0882409E+02       2.4924007E+02
 14912   2.5288127E+02       1.4779675E+03       2.5188127E+02
 14913   2.5469587E+02       1.0538385E+03       2.5369587E+02
 14914   2.4839057E+02       7.4575180E+02       2.4739057E+02
 14915   2.4891787E+02       5.0875312E+02       2.4791787E+02
 14916   2.4935397E+02       3.7061420E+02       2.4835397E+02
 14917   2.4927157E+02       2.9248550E+02       2.4827157E+02
 14918   2.4958737E+02       2.4944901E+02       2.4858737E+02
 14919   2.4963877E+02       2.3324445E+02       2.4863877E+02
 14920   2.4971697E+02       8.7839636E+01       2.4871697E+02
 15231   2.4819077E+02       2.0500636E+03       2.4719077E+02
 15232   2.4836317E+02       1.8756874E+02       2.4736317E+02
 15551   2.4867327E+02       2.5001951E+03       2.4767327E+02
 15868   2.4790557E+02       1.3859689E+03       2.4690557E+02
 15869   2.4798097E+02       2.8086123E+03       2.4698097E+02
 15870   2.4826897E+02       2.8434512E+03       2.4726897E+02
 15871   2.4818027E+02       8.6538914E+02       2.4718027E+02
 16187   2.4757127E+02       2.0363339E+03       2.4657127E+02
 16188   2.4805857E+02       1.7991524E+03       2.4705857E+02
 16507   2.4740737E+02       2.5724019E+03       2.4640737E+02
 16826   2.4705227E+02       1.4510059E+03       2.4605227E+02
 16827   2.4658517E+02       1.8416852E+03       2.4558517E+02
 17146   2.4650617E+02       3.7511962E+02       2.4550617E+02
 3292    2.6302567E+02       1.2185517E+02       2.6202567E+02
 24404   2.4956597E+02       3.0594896E+04       2.4856597E+02
 24724   2.4961927E+02       1.1114801E+05       2.4861927E+02
 25043   2.4985337E+02       4.3757951E+04       2.4885337E+02
 25044   2.5382987E+02       8.7987047E+04       2.5282987E+02
 25361   2.5394167E+02       3.4011406E+04       2.5294167E+02
 25362   2.5003867E+02       1.2850157E+05       2.4903867E+02
 25363   2.5036027E+02       1.1015973E+05       2.4936027E+02
 25678   2.5061067E+02       1.8330889E+04       2.4961067E+02
 25679   2.5046927E+02       1.2007933E+05       2.4946927E+02
 25680   2.5032847E+02       1.2618876E+05       2.4932847E+02
 25681   2.5019817E+02       9.6962887E+04       2.4919817E+02
 22894   2.4181177E+02       7.9600435E+03       2.4081177E+02
 23212   2.3989077E+02       7.3786688E+03       2.3889077E+02
 23213   2.3982147E+02       8.0111287E+03       2.3882147E+02
 23214   2.3977127E+02       2.1594747E+03       2.3877127E+02
 23530   2.4144937E+02       1.2601839E+04       2.4044937E+02
 23531   2.3996027E+02       9.8398744E+03       2.3896027E+02
 23532   2.3988827E+02       9.2825772E+02       2.3888827E+02
 23848   2.4309497E+02       3.7219526E+04       2.4209497E+02
 23849   2.4009197E+02       2.3451708E+04       2.3909197E+02
 24140   2.4218717E+02       3.8254647E+04       2.4118717E+02
 24141   2.4210947E+02       8.8875084E+04       2.4110947E+02
 24142   2.4667777E+02       2.5485090E+04       2.4567777E+02
 24164   2.4559877E+02       3.2431411E+04       2.4459877E+02
 24165   2.4463187E+02       7.6434460E+04       2.4363187E+02
 24166   2.4031367E+02       7.4657810E+04       2.3931367E+02
 24167   2.4021587E+02       5.8629010E+04       2.3921587E+02
 24462   2.4205977E+02       5.7950409E+04       2.4105977E+02
 24463   2.4292537E+02       9.7074797E+04       2.4192537E+02
 24469   2.4148527E+02       9.4235629E+03       2.4048527E+02
 24470   2.4204637E+02       1.1100529E+04       2.4104637E+02
 24471   2.4245227E+02       9.1385645E+03       2.4145227E+02
 24472   2.4417547E+02       7.7365531E+03       2.4317547E+02
 24473   2.4784427E+02       1.8081324E+03       2.4684427E+02
 24481   2.4571287E+02       2.4269203E+04       2.4471287E+02
 24482   2.4507237E+02       3.4343395E+04       2.4407237E+02
 24483   2.4144247E+02       4.5938035E+04       2.4044247E+02
 24484   2.4040307E+02       3.0041051E+04       2.3940307E+02
 24783   2.4192817E+02       9.5395488E+03       2.4092817E+02
 24784   2.4596847E+02       8.0939687E+04       2.4496847E+02
 24785   2.4612307E+02       4.6715158E+04       2.4512307E+02
 24786   2.4268887E+02       3.5238013E+04       2.4168887E+02
 24787   2.4399207E+02       2.5092292E+04       2.4299207E+02
 24788   2.4275977E+02       2.0710186E+04       2.4175977E+02
 24789   2.4301207E+02       7.0009380E+03       2.4201207E+02
 24793   2.4114297E+02       4.9127166E+03       2.4014297E+02
 24794   2.4101877E+02       6.2441685E+03       2.4001877E+02
 24795   2.4093267E+02       6.2528331E+03       2.3993267E+02
 24796   2.4208027E+02       6.6648000E+03       2.4108027E+02
 24797   2.4372777E+02       7.6285415E+03       2.4272777E+02
 24798   2.4289367E+02       9.2485151E+03       2.4189367E+02
 24799   2.4108187E+02       1.1899295E+04       2.4008187E+02
 24800   2.4064267E+02       1.4966773E+04       2.3964267E+02
 10965   2.5094397E+02       9.5547815E+02       2.4994397E+02
 10966   2.5147207E+02       2.9184126E+03       2.5047207E+02
 10967   2.5130457E+02       2.3793696E+03       2.5030457E+02
 10968   2.5117157E+02       1.4832058E+03       2.5017157E+02
 11288   2.5073057E+02       1.3719580E+03       2.4973057E+02
 11608   2.5034627E+02       1.0923482E+03       2.4934627E+02
 11928   2.5026087E+02       1.0060534E+03       2.4926087E+02
 12248   2.5080577E+02       1.1420411E+03       2.4980577E+02
 12568   2.4963427E+02       1.3992821E+03       2.4863427E+02
 12888   2.4925917E+02       1.9857239E+03       2.4825917E+02
 13207   2.4949817E+02       2.7994827E+03       2.4849817E+02
 13208   2.5031117E+02       5.1324639E+02       2.4931117E+02
 13526   2.5033627E+02       2.5930124E+03       2.4933627E+02
 13527   2.4982197E+02       1.2936017E+03       2.4882197E+02
 13846   2.5023277E+02       3.6222466E+03       2.4923277E+02
 14165   2.4925797E+02       1.8564574E+03       2.4825797E+02
 14166   2.4954957E+02       1.3396272E+03       2.4854957E+02
 14486   2.5050977E+02       3.6482652E+03       2.4950977E+02
 14806   2.4895237E+02       9.5353674E+02       2.4795237E+02
 14807   2.5037617E+02       3.3503553E+03       2.4937617E+02
 15127   2.5103607E+02       2.5917721E+03       2.5003607E+02
 15447   2.5023527E+02       2.6951285E+03       2.4923527E+02
 15766   2.4908127E+02       1.7949803E+03       2.4808127E+02
 15767   2.4889567E+02       1.0737618E+03       2.4789567E+02
 16086   2.4968167E+02       2.6420967E+03       2.4868167E+02
 16406   2.4970567E+02       2.4450665E+03       2.4870567E+02
 16407   2.4980577E+02       2.6207304E+03       2.4880577E+02
 16408   2.4900967E+02       2.7640794E+03       2.4800967E+02
 16409   2.4925127E+02       3.8690285E+03       2.4825127E+02
 16729   2.4978017E+02       5.7954022E+02       2.4878017E+02
 16730   2.4982627E+02       1.8645049E+03       2.4882627E+02
 17050   2.4918097E+02       2.4470053E+03       2.4818097E+02
 17370   2.4875797E+02       1.1330982E+03       2.4775797E+02
 17371   2.4928657E+02       1.4088664E+03       2.4828657E+02
 17372   2.4844317E+02       1.3435149E+03       2.4744317E+02
 17373   2.4871117E+02       7.1739617E+02       2.4771117E+02
 22024   2.5018587E+02       2.9993543E+00       2.4918587E+02
 22025   2.5017537E+02       3.8039528E+00       2.4917537E+02
 22026   2.5080597E+02       3.7850836E+00       2.4980597E+02
 22340   2.5231897E+02       3.9526095E+00       2.5131897E+02
 22341   2.5023837E+02       3.9729720E+00       2.4923837E+02
 22342   2.5022297E+02       3.9096410E+00       2.4922297E+02
 22343   2.5022167E+02       3.8620079E+00       2.4922167E+02
 22344   2.5024717E+02       8.2179907E-01       2.4924717E+02
 22659   2.5638357E+02       4.2084991E+00       2.5538357E+02
 22660   2.5075047E+02       1.0709459E+00       2.4975047E+02
 22978   2.5564867E+02       2.3795422E+00       2.5464867E+02
 22979   2.5071787E+02       2.3731190E+00       2.4971787E+02
 23298   2.5104727E+02       4.5420242E+00       2.5004727E+02
 23617   2.5264417E+02       2.5924430E+00       2.5164417E+02
 23618   2.5428987E+02       1.6826817E+00       2.5328987E+02
 23937   2.4988287E+02       4.1445079E+00       2.4888287E+02
 24256   2.4987497E+02       3.2651649E+00       2.4887497E+02
 24257   2.5515637E+02       2.3829784E+00       2.5415637E+02
 24575   2.5135587E+02       4.6817453E+00       2.5035587E+02
 24576   2.5205807E+02       1.3742534E+00       2.5105807E+02
 24894   2.4881937E+02       4.4569564E+00       2.4781937E+02
 25214   2.4945107E+02       3.7726269E+00       2.4845107E+02
 25534   2.4883737E+02       4.0110829E+00       2.4783737E+02
 25854   2.4822067E+02       2.7664588E+00       2.4722067E+02
 25855   2.4905317E+02       1.4145392E+00       2.4805317E+02
 26175   2.4938227E+02       4.4365076E+00       2.4838227E+02
 26495   2.4887337E+02       4.7365022E+00       2.4787337E+02
 26815   2.4657627E+02       2.5966676E+00       2.4557627E+02
 26816   2.4832417E+02       3.3092879E+00       2.4732417E+02
 27136   2.4836897E+02       6.8290231E+00       2.4736897E+02
 27456   2.4562067E+02       1.4613715E+00       2.4462067E+02
 27457   2.4804537E+02       5.8339804E+00       2.4704537E+02
 27777   2.4660787E+02       7.7570084E+00       2.4560787E+02
 28097   2.4483747E+02       8.1100471E+00       2.4383747E+02
 28417   2.4461047E+02       3.5863336E+00       2.4361047E+02
 28418   2.4508987E+02       4.7228460E+00       2.4408987E+02
 28738   2.4413977E+02       8.3606557E+00       2.4313977E+02
 29058   2.4482547E+02       8.2127409E+00       2.4382547E+02
 29378   2.4260127E+02       7.8835794E+00       2.4160127E+02
 29698   2.4261237E+02       8.4036559E+00       2.4161237E+02
 30017   2.4237047E+02       6.8881141E+00       2.4137047E+02
 30018   2.4326277E+02       4.4433415E+00       2.4226277E+02
 30336   2.4578737E+02       5.7844959E+00       2.4478737E+02
 30337   2.4192567E+02       1.5894660E+00       2.4092567E+02
 30656   2.4190837E+02       6.3230040E+00       2.4090837E+02
 30975   2.4133517E+02       1.7237425E+00       2.4033517E+02
 30976   2.4314007E+02       5.2758689E+00       2.4214007E+02
 31295   2.4115487E+02       4.9990804E+00       2.4015487E+02
 26451   2.4235677E+02       4.3435080E+00       2.4135677E+02
 26452   2.4183397E+02       1.0079095E+01       2.4083397E+02
 26769   2.4123347E+02       2.5020437E+00       2.4023347E+02
 26770   2.4111207E+02       1.0906686E+01       2.4011207E+02
 26771   2.4123197E+02       8.6905160E+00       2.4023197E+02
 51832   2.4567887E+02       7.2418385E+01       2.4467887E+02
 52153   2.5032877E+02       8.9627852E+01       2.4932877E+02
 52474   2.5032877E+02       7.6386319E+01       2.4932877E+02
 52794   2.5032877E+02       6.4472071E+01       2.4932877E+02
 53114   2.5032877E+02       6.4592975E+01       2.4932877E+02
 53434   2.5032877E+02       6.3917835E+01       2.4932877E+02
 53754   2.5032877E+02       6.3501687E+01       2.4932877E+02
 54074   2.5032877E+02       6.8777818E+01       2.4932877E+02
 54393   2.5032877E+02       1.2018433E+01       2.4932877E+02
 54394   2.5032877E+02       6.2947763E+01       2.4932877E+02
 54713   2.5032877E+02       6.9406732E+01       2.4932877E+02
 55033   2.5032877E+02       6.3167991E+01       2.4932877E+02
 55353   2.5032877E+02       6.3169631E+01       2.4932877E+02
 55673   2.5032877E+02       7.9826981E+01       2.4932877E+02
 40255   2.3291457E+02       6.1415128E+04       2.3191457E+02
 40256   2.3289907E+02       9.6723870E+04       2.3189907E+02
 40257   2.3288707E+02       1.0775088E+05       2.3188707E+02
 40578   2.3287557E+02       1.0532769E+05       2.3187557E+02
 40579   2.3286137E+02       6.7823342E+04       2.3186137E+02
 40899   2.3286297E+02       4.4318322E+04       2.3186297E+02
 40900   2.3285007E+02       1.0653693E+05       2.3185007E+02
 40901   2.3283847E+02       9.0837729E+04       2.3183847E+02
 41221   2.3283887E+02       2.1410772E+04       2.3183887E+02
 41222   2.3282787E+02       1.2754656E+05       2.3182787E+02
 41223   2.3281747E+02       1.4417361E+05       2.3181747E+02
 41224   2.3280737E+02       6.1942637E+04       2.3180737E+02
 41544   2.3280507E+02       1.0720411E+05       2.3180507E+02
 41545   2.3279487E+02       1.9755314E+05       2.3179487E+02
 41546   2.3278497E+02       2.0486443E+05       2.3178497E+02
 41867   2.3276397E+02       2.3471401E+05       2.3176397E+02
 41868   2.3274557E+02       2.2957229E+05       2.3174557E+02
 41869   2.3273367E+02       1.2260064E+05       2.3173367E+02
 42189   2.3273177E+02       7.3724638E+04       2.3173177E+02
 42190   2.3272587E+02       1.5599583E+05       2.3172587E+02
 42191   2.3272027E+02       1.2396229E+05       2.3172027E+02
 42192   2.3271477E+02       9.6390069E+04       2.3171477E+02
 42193   2.3417577E+02       7.7459608E+04       2.3317577E+02
 42194   2.3357897E+02       6.5619133E+04       2.3257897E+02
 42195   2.3269617E+02       6.0366653E+04       2.3169617E+02
 42196   2.3268927E+02       6.2720170E+04       2.3168927E+02
 42197   2.3471687E+02       1.2000543E+04       2.3371687E+02
 42517   2.3268087E+02       7.3334784E+04       2.3168087E+02
 42518   2.3319407E+02       8.7335706E+03       2.3219407E+02
 42838   2.3267237E+02       7.4567060E+04       2.3167237E+02
 43158   2.3266957E+02       1.5728535E+04       2.3166957E+02
 43159   2.3266307E+02       5.1772904E+04       2.3166307E+02
 43479   2.3265997E+02       3.3089692E+04       2.3165997E+02
 43480   2.3620257E+02       2.2605987E+04       2.3520257E+02
 43800   2.3265047E+02       4.0086766E+04       2.3165047E+02
 43801   2.4133087E+02       3.2471762E+03       2.4033087E+02
 44121   2.3264157E+02       2.9583251E+04       2.3164157E+02
 44441   2.3263777E+02       2.3089120E+04       2.3163777E+02
 44762   2.3262857E+02       1.8047732E+04       2.3162857E+02
 44776   2.3190307E+02       1.1883738E+04       2.3090307E+02
 44777   2.3185497E+02       1.3305314E+04       2.3085497E+02
 44778   2.3182227E+02       1.3369497E+04       2.3082227E+02
 44779   2.3180177E+02       1.3968110E+04       2.3080177E+02
 44780   2.3178377E+02       1.5493129E+04       2.3078377E+02
 45082   2.3262377E+02       1.5856446E+04       2.3162377E+02
 45095   2.3193847E+02       1.4242683E+04       2.3093847E+02
 45096   2.3188347E+02       3.7819506E+03       2.3088347E+02
 45101   2.3173677E+02       1.3657446E+04       2.3073677E+02
 45102   2.3171037E+02       7.4311136E+03       2.3071037E+02
 45402   2.3261907E+02       7.6559828E+03       2.3161907E+02
 45403   2.3261507E+02       6.2330171E+03       2.3161507E+02
 45414   2.3199237E+02       1.1057840E+04       2.3099237E+02
 45415   2.3192737E+02       3.7345084E+03       2.3092737E+02
 45422   2.3168677E+02       6.1234063E+03       2.3068677E+02
 45423   2.3166227E+02       1.2718999E+04       2.3066227E+02
 45723   2.3261027E+02       1.2407952E+04       2.3161027E+02
 45734   2.3198777E+02       1.3565192E+04       2.3098777E+02
 45744   2.3161787E+02       1.4448048E+04       2.3061787E+02
 45745   2.3159237E+02       1.1763693E+03       2.3059237E+02
 46043   2.3260517E+02       1.2719368E+04       2.3160517E+02
 46053   2.3206507E+02       3.9811811E+03       2.3106507E+02
 46054   2.3198907E+02       9.0857877E+03       2.3098907E+02
 46065   2.3157377E+02       1.6481165E+04       2.3057377E+02
 46066   2.3154757E+02       1.4332026E+03       2.3054757E+02
 46364   2.3259647E+02       1.4125761E+04       2.3159647E+02
 46373   2.3207087E+02       1.1815965E+04       2.3107087E+02
 46386   2.3153017E+02       2.0482682E+04       2.3053017E+02
 46387   2.3150247E+02       1.7405084E+03       2.3050247E+02
 46684   2.3258727E+02       1.9295057E+04       2.3158727E+02
 46693   2.3207957E+02       1.0147358E+04       2.3107957E+02
 46707   2.3148547E+02       2.2128483E+04       2.3048547E+02
 47004   2.3292617E+02       1.2420868E+04       2.3192617E+02
 47005   2.3258067E+02       1.1076172E+04       2.3158067E+02
 47012   2.3217547E+02       5.7616538E+03       2.3117547E+02
 47013   2.3208737E+02       2.2226699E+03       2.3108737E+02
 47027   2.3146777E+02       7.5090837E+03       2.3046777E+02
 47028   2.3143637E+02       1.4814560E+04       2.3043637E+02
 47325   2.3256347E+02       2.4791503E+04       2.3156347E+02
 47332   2.3219337E+02       6.0263387E+03       2.3119337E+02
 47348   2.3141537E+02       2.0517810E+04       2.3041537E+02
 47645   2.3616977E+02       2.6420347E+03       2.3516977E+02
 47646   2.3252507E+02       1.9166473E+04       2.3152507E+02
 47651   2.3241517E+02       8.5436828E+02       2.3141517E+02
 47652   2.3221077E+02       4.2892283E+03       2.3121077E+02
 47668   2.3139497E+02       9.2524676E+03       2.3039497E+02
 47669   2.3135777E+02       1.2120388E+04       2.3035777E+02
 47966   2.3250577E+02       1.3382794E+04       2.3150577E+02
 47967   2.3248407E+02       6.7507754E+03       2.3148407E+02
 47971   2.3230047E+02       7.2563339E+03       2.3130047E+02
 47989   2.3133337E+02       2.5259984E+04       2.3033337E+02
 48287   2.3245397E+02       2.0603169E+04       2.3145397E+02
 48290   2.3235537E+02       1.1926028E+04       2.3135537E+02