BEGIN OPTIONS
  SAVE_FLOWS
END OPTIONS

BEGIN GRIDDATA
  ICELLTYPE  LAYERED
    CONSTANT  0
  K  LAYERED
    OPEN/CLOSE hk.ref FACTOR 1.0
END GRIDDATA
