MODPATH_ENDPOINT_FILE         7         2
    1         1         1         1   0.0000000000E+00  0.0000000000E+00  0.0000000000E+00  0.0000000000E+00
       0       0       0       0       0       1       0       0       0       0
         1
PG1             
END HEADER
         1         1         1    5  0.0000000000E+00  0.5976908761E+04       525    1  0.5000000000E+00  0.5000000000E+00  0.5000000000E+00  0.2450000000E+03  0.6950000000E+03 -0.1050000000E+03    1    0      3972    1  0.3070733165E+00  0.1000000000E+01  0.5000000000E+00  0.2130707332E+03  0.1000000000E+02 -0.1050000000E+03    1    4
