MODPATH_TIMESERIES_FILE         7         2
    1   0.0000000000E+00  0.0000000000E+00  0.0000000000E+00  0.0000000000E+00
END HEADER
       0       1  0.0000000000E+00         1    1         1       525  0.5000000000E+00  0.5000000000E+00  0.5000000000E+00  0.2450000000E+03  0.6950000000E+03 -0.1050000000E+03         1
       0       1  0.6013681338-153         1    1         1       525  0.5000000000E+00  0.5000000000E+00  0.5000000000E+00  0.2450000000E+03  0.6950000000E+03 -0.1050000000E+03         1
