MODPATH_PATHLINE_FILE         7         2
    1   0.0000000000E+00  0.0000000000E+00  0.0000000000E+00  0.0000000000E+00
END HEADER
         1         1         1        85
       525  0.24500000E+03  0.69500000E+03 -0.10500000E+03  0.00000000E+00  0.50000000E+00  0.50000000E+00  0.50000000E+00         1         1         1
       525  0.24500000E+03  0.69500000E+03 -0.10500000E+03  0.60136813-153  0.50000000E+00  0.50000000E+00  0.50000000E+00         1         1         1
       525  0.24751024E+03  0.69000000E+03 -0.10500000E+03  0.47161266E+02  0.75102389E+00  0.00000000E+00  0.50000000E+00         1         1         1
       575  0.25000000E+03  0.68503104E+03 -0.10500000E+03  0.94971519E+02  0.10000000E+01  0.50310425E+00  0.50000000E+00         1         1         1
       576  0.25248109E+03  0.68000000E+03 -0.10500000E+03  0.14172501E+03  0.24810935E+00  0.00000000E+00  0.50000000E+00         1         1         1
       626  0.25742144E+03  0.67000000E+03 -0.10500000E+03  0.23701815E+03  0.74214397E+00  0.00000000E+00  0.50000000E+00         1         1         1
       676  0.26000000E+03  0.66483409E+03 -0.10500000E+03  0.28760758E+03  0.10000000E+01  0.48340936E+00  0.50000000E+00         1         1         1
       677  0.26233696E+03  0.66000000E+03 -0.10500000E+03  0.33263703E+03  0.23369596E+00  0.00000000E+00  0.50000000E+00         1         1         1
       727  0.26710699E+03  0.65000000E+03 -0.10500000E+03  0.42825186E+03  0.71069936E+00  0.00000000E+00  0.50000000E+00         1         1         1
       777  0.27000000E+03  0.64383415E+03 -0.10500000E+03  0.48937094E+03  0.10000000E+01  0.38341488E+00  0.50000000E+00         1         1         1
       778  0.27169464E+03  0.64000000E+03 -0.10500000E+03  0.52428391E+03  0.16946400E+00  0.00000000E+00  0.50000000E+00         1         1         1
       828  0.27578279E+03  0.63000000E+03 -0.10500000E+03  0.61919920E+03  0.57827940E+00  0.00000000E+00  0.50000000E+00         1         1         1
       878  0.27972979E+03  0.62000000E+03 -0.10500000E+03  0.72096761E+03  0.97297870E+00  0.00000000E+00  0.50000000E+00         1         1         1
       928  0.28000000E+03  0.61921439E+03 -0.10500000E+03  0.72928269E+03  0.10000000E+01  0.92143870E+00  0.50000000E+00         1         1         1
       929  0.28303156E+03  0.61000000E+03 -0.10500000E+03  0.81970834E+03  0.30315643E+00  0.00000000E+00  0.50000000E+00         1         1         1
       979  0.28579534E+03  0.60000000E+03 -0.10500000E+03  0.92358889E+03  0.57953387E+00  0.00000000E+00  0.50000000E+00         1         1         1
      1029  0.28771996E+03  0.59000000E+03 -0.10500000E+03  0.10325286E+04  0.77199621E+00  0.00000000E+00  0.50000000E+00         1         1         1
      1079  0.28841668E+03  0.58000000E+03 -0.10500000E+03  0.11443110E+04  0.84166779E+00  0.00000000E+00  0.50000000E+00         1         1         1
      1129  0.28790070E+03  0.57000000E+03 -0.10500000E+03  0.12560876E+04  0.79006962E+00  0.00000000E+00  0.50000000E+00         1         1         1
      1179  0.28649583E+03  0.56000000E+03 -0.10500000E+03  0.13651127E+04  0.64958291E+00  0.00000000E+00  0.50000000E+00         1         1         1
      1229  0.28452725E+03  0.55000000E+03 -0.10500000E+03  0.14701029E+04  0.45272477E+00  0.00000000E+00  0.50000000E+00         1         1         1
      1279  0.28223717E+03  0.54000000E+03 -0.10500000E+03  0.15709608E+04  0.22371681E+00  0.00000000E+00  0.50000000E+00         1         1         1
      1329  0.28000000E+03  0.53080982E+03 -0.10500000E+03  0.16598996E+04  0.00000000E+00  0.80981734E-01  0.50000000E+00         1         1         1
      1328  0.27978868E+03  0.53000000E+03 -0.10500000E+03  0.16684935E+04  0.97886787E+00  0.00000000E+00  0.50000000E+00         1         1         1
      1378  0.27701821E+03  0.52000000E+03 -0.10500000E+03  0.17714580E+04  0.70182085E+00  0.00000000E+00  0.50000000E+00         1         1         1
      1428  0.27429255E+03  0.51000000E+03 -0.10500000E+03  0.18677873E+04  0.42925464E+00  0.00000000E+00  0.50000000E+00         1         1         1
      1478  0.27183452E+03  0.50000000E+03 -0.10500000E+03  0.19572596E+04  0.18345228E+00  0.00000000E+00  0.50000000E+00         1         1         1
      1528  0.27000000E+03  0.49137678E+03 -0.10500000E+03  0.20296449E+04  0.00000000E+00  0.13767828E+00  0.50000000E+00         1         1         1
      1527  0.26970735E+03  0.49000000E+03 -0.10500000E+03  0.20415734E+04  0.97073465E+00  0.00000000E+00  0.50000000E+00         1         1         1
      1577  0.26785043E+03  0.48000000E+03 -0.10500000E+03  0.21253301E+04  0.78504278E+00  0.00000000E+00  0.50000000E+00         1         1         1
      1627  0.26637650E+03  0.47000000E+03 -0.10500000E+03  0.22048199E+04  0.63765029E+00  0.00000000E+00  0.50000000E+00         1         1         1
      1677  0.26517442E+03  0.46000000E+03 -0.10500000E+03  0.22809788E+04  0.51744151E+00  0.00000000E+00  0.50000000E+00         1         1         1
      1727  0.26422848E+03  0.45000000E+03 -0.10500000E+03  0.23544235E+04  0.42284827E+00  0.00000000E+00  0.50000000E+00         1         1         1
      1777  0.26349833E+03  0.44000000E+03 -0.10500000E+03  0.24257288E+04  0.34983338E+00  0.00000000E+00  0.50000000E+00         1         1         1
      1827  0.26287777E+03  0.43000000E+03 -0.10500000E+03  0.24951354E+04  0.28777708E+00  0.00000000E+00  0.50000000E+00         1         1         1
      1877  0.26223036E+03  0.42000000E+03 -0.10500000E+03  0.25627106E+04  0.22303592E+00  0.00000000E+00  0.50000000E+00         1         1         1
      1927  0.26144738E+03  0.41000000E+03 -0.10500000E+03  0.26286422E+04  0.14473821E+00  0.00000000E+00  0.50000000E+00         1         1         1
      1977  0.26048523E+03  0.40000000E+03 -0.10500000E+03  0.26930341E+04  0.48523069E-01  0.00000000E+00  0.50000000E+00         1         1         1
      2027  0.26000000E+03  0.39593542E+03 -0.10500000E+03  0.27187608E+04  0.00000000E+00  0.59354223E+00  0.50000000E+00         1         1         1
      2026  0.25927811E+03  0.39000000E+03 -0.10500000E+03  0.27574972E+04  0.92781109E+00  0.00000000E+00  0.50000000E+00         1         1         1
      2076  0.25782168E+03  0.38000000E+03 -0.10500000E+03  0.28215810E+04  0.78216779E+00  0.00000000E+00  0.50000000E+00         1         1         1
      2126  0.25620661E+03  0.37000000E+03 -0.10500000E+03  0.28842136E+04  0.62066050E+00  0.00000000E+00  0.50000000E+00         1         1         1
      2176  0.25452331E+03  0.36000000E+03 -0.10500000E+03  0.29455068E+04  0.45233080E+00  0.00000000E+00  0.50000000E+00         1         1         1
      2226  0.25282345E+03  0.35000000E+03 -0.10500000E+03  0.30056652E+04  0.28234458E+00  0.00000000E+00  0.50000000E+00         1         1         1
      2276  0.25115367E+03  0.34000000E+03 -0.10500000E+03  0.30647822E+04  0.11536731E+00  0.00000000E+00  0.50000000E+00         1         1         1
      2326  0.25000000E+03  0.33239894E+03 -0.10500000E+03  0.31090566E+04  0.00000000E+00  0.23989387E+00  0.50000000E+00         1         1         1
      2325  0.24962584E+03  0.33000000E+03 -0.10500000E+03  0.31235373E+04  0.96258350E+00  0.00000000E+00  0.50000000E+00         1         1         1
      2375  0.24829222E+03  0.32000000E+03 -0.10500000E+03  0.31834973E+04  0.82922236E+00  0.00000000E+00  0.50000000E+00         1         1         1
      2425  0.24713965E+03  0.31000000E+03 -0.10500000E+03  0.32434282E+04  0.71396454E+00  0.00000000E+00  0.50000000E+00         1         1         1
      2475  0.24603572E+03  0.30000000E+03 -0.10500000E+03  0.33043043E+04  0.60357176E+00  0.00000000E+00  0.50000000E+00         1         1         1
      2525  0.24486845E+03  0.29000000E+03 -0.10500000E+03  0.33670246E+04  0.48684468E+00  0.00000000E+00  0.50000000E+00         1         1         1
      2575  0.24352052E+03  0.28000000E+03 -0.10500000E+03  0.34320748E+04  0.35205151E+00  0.00000000E+00  0.50000000E+00         1         1         1
      2625  0.24182851E+03  0.27000000E+03 -0.10500000E+03  0.34997718E+04  0.18285083E+00  0.00000000E+00  0.50000000E+00         1         1         1
      2675  0.24000000E+03  0.26116380E+03 -0.10500000E+03  0.35623488E+04  0.00000000E+00  0.11637957E+00  0.50000000E+00         1         1         1
      2674  0.23975583E+03  0.26000000E+03 -0.10500000E+03  0.35704954E+04  0.97558280E+00  0.00000000E+00  0.50000000E+00         1         1         1
      2724  0.23741403E+03  0.25000000E+03 -0.10500000E+03  0.36419580E+04  0.74140260E+00  0.00000000E+00  0.50000000E+00         1         1         1
      2774  0.23473267E+03  0.24000000E+03 -0.10500000E+03  0.37166765E+04  0.47326673E+00  0.00000000E+00  0.50000000E+00         1         1         1
      2824  0.23163934E+03  0.23000000E+03 -0.10500000E+03  0.37959630E+04  0.16393420E+00  0.00000000E+00  0.50000000E+00         1         1         1
      2874  0.23000000E+03  0.22496646E+03 -0.10500000E+03  0.38380415E+04  0.00000000E+00  0.49664571E+00  0.50000000E+00         1         1         1
      2873  0.22846041E+03  0.22000000E+03 -0.10500000E+03  0.38762482E+04  0.84604101E+00  0.00000000E+00  0.50000000E+00         1         1         1
      2923  0.22550874E+03  0.21000000E+03 -0.10500000E+03  0.39566411E+04  0.55087424E+00  0.00000000E+00  0.50000000E+00         1         1         1
      2973  0.22245802E+03  0.20000000E+03 -0.10500000E+03  0.40422572E+04  0.24580168E+00  0.00000000E+00  0.50000000E+00         1         1         1
      3023  0.22000000E+03  0.19206989E+03 -0.10500000E+03  0.41142622E+04  0.00000000E+00  0.20698906E+00  0.50000000E+00         1         1         1
      3022  0.21938408E+03  0.19000000E+03 -0.10500000E+03  0.41317385E+04  0.93840827E+00  0.00000000E+00  0.50000000E+00         1         1         1
      3072  0.21653188E+03  0.18000000E+03 -0.10500000E+03  0.42193558E+04  0.65318775E+00  0.00000000E+00  0.50000000E+00         1         1         1
      3122  0.21378994E+03  0.17000000E+03 -0.10500000E+03  0.43121813E+04  0.37899370E+00  0.00000000E+00  0.50000000E+00         1         1         1
      3172  0.21125619E+03  0.16000000E+03 -0.10500000E+03  0.44102412E+04  0.12561938E+00  0.00000000E+00  0.50000000E+00         1         1         1
      3222  0.21000000E+03  0.15422737E+03 -0.10500000E+03  0.44692159E+04  0.00000000E+00  0.42273654E+00  0.50000000E+00         1         1         1
      3221  0.20911272E+03  0.15000000E+03 -0.10500000E+03  0.45099536E+04  0.91127151E+00  0.00000000E+00  0.50000000E+00         1         1         1
      3271  0.20744033E+03  0.14000000E+03 -0.10500000E+03  0.46089574E+04  0.74403256E+00  0.00000000E+00  0.50000000E+00         1         1         1
      3321  0.20620441E+03  0.13000000E+03 -0.10500000E+03  0.47112994E+04  0.62044127E+00  0.00000000E+00  0.50000000E+00         1         1         1
      3371  0.20542072E+03  0.12000000E+03 -0.10500000E+03  0.48164336E+04  0.54207168E+00  0.00000000E+00  0.50000000E+00         1         1         1
      3421  0.20511487E+03  0.11000000E+03 -0.10500000E+03  0.49237388E+04  0.51148731E+00  0.00000000E+00  0.50000000E+00         1         1         1
      3471  0.20531365E+03  0.10000000E+03 -0.10500000E+03  0.50323131E+04  0.53136486E+00  0.00000000E+00  0.50000000E+00         1         1         1
      3521  0.20596634E+03  0.90000000E+02 -0.10500000E+03  0.51409741E+04  0.59663426E+00  0.00000000E+00  0.50000000E+00         1         1         1
      3571  0.20696024E+03  0.80000000E+02 -0.10500000E+03  0.52486324E+04  0.69602415E+00  0.00000000E+00  0.50000000E+00         1         1         1
      3621  0.20816033E+03  0.70000000E+02 -0.10500000E+03  0.53544972E+04  0.81603284E+00  0.00000000E+00  0.50000000E+00         1         1         1
      3671  0.20943763E+03  0.60000000E+02 -0.10500000E+03  0.54581894E+04  0.94376343E+00  0.00000000E+00  0.50000000E+00         1         1         1
      3721  0.21000000E+03  0.55669651E+02 -0.10500000E+03  0.55025668E+04  0.10000000E+01  0.56696513E+00  0.50000000E+00         1         1         1
      3722  0.21071880E+03  0.50000000E+02 -0.10500000E+03  0.55600878E+04  0.71880316E-01  0.00000000E+00  0.50000000E+00         1         1         1
      3772  0.21171395E+03  0.40000000E+02 -0.10500000E+03  0.56601336E+04  0.17139496E+00  0.00000000E+00  0.50000000E+00         1         1         1
      3822  0.21235450E+03  0.30000000E+02 -0.10500000E+03  0.57621525E+04  0.23544969E+00  0.00000000E+00  0.50000000E+00         1         1         1
      3872  0.21281686E+03  0.20000000E+02 -0.10500000E+03  0.58680937E+04  0.28168605E+00  0.00000000E+00  0.50000000E+00         1         1         1
      3922  0.21307073E+03  0.10000000E+02 -0.10500000E+03  0.59769088E+04  0.30707332E+00  0.00000000E+00  0.50000000E+00         1         1         1
      3972  0.21307073E+03  0.10000000E+02 -0.10500000E+03  0.59769088E+04  0.30707332E+00  0.10000000E+01  0.50000000E+00         1         1         1
